<?xml version="1.0"?>

<!-- generated on Wed Nov  7 10:33:21 2012 by SUMO duarouter Version 0.15.0
<?xml version="1.0" encoding="UTF-8"?>

<configuration xmlns:xsi="http://www.w3.org/2001/XMLSchema-instance" xsi:noNamespaceSchemaLocation="http://sumo.sf.net/xsd/duarouterConfiguration.xsd">

    <input>
        <net-file value="net.net.xml"/>
        <trip-files value="trips.trips.xml"/>
    </input>

    <output>
        <output-file value=".temp"/>
    </output>

    <processing>
        <ignore-errors value="true"/>
    </processing>

</configuration>
-->

<route-alternatives xmlns:xsi="http://www.w3.org/2001/XMLSchema-instance" xsi:noNamespaceSchemaLocation="http://sumo.sf.net/xsd/routes_file.xsd">
    <vehicle id="trips.trips.xml0" depart="0.00">
        <routeDistribution last="0">
            <route cost="78.43" probability="1.00000000" edges="-4900358 49003954 4900401 40067090 40067091 40067092 40067093 40067094 -4900040 4900040"/>
        </routeDistribution>
    </vehicle>
    <vehicle id="trips.trips.xml2" depart="2.00">
        <routeDistribution last="0">
            <route cost="388.99" probability="1.00000000" edges="233412912 233412913 -233602992 -54452040 -40066681 23339459 44009481 46869710 19796637 -363991015 -363991014 -363991013 -363991012 -363991011 -363991010 -36399109 -36399108 -36399107 -36399106 -36399105 -36399104 4872372 4319432 4319430 43194060 43194061 43194062 43194880 4886935 36289120 36289121"/>
        </routeDistribution>
    </vehicle>
    <vehicle id="trips.trips.xml3" depart="3.00">
        <routeDistribution last="0">
            <route cost="346.10" probability="1.00000000" edges="-48723821 -48723820 -4872381 4872380 4872377 4872374 4872372 4319432 4319430 43194060 43194061 43194062 43194880 43194881 43194882 4319404 16944028 43193982 4001571 4319494 10578577 10578576 3593951 48872802 48872900 48872901 48872902 44167020 44167021 4416703 235707700 235707701 235707720 235707721 235707770 235707771 235707772 235707773 235707774 235707775 40471820 -40471820"/>
        </routeDistribution>
    </vehicle>
    <vehicle id="trips.trips.xml4" depart="4.00">
        <routeDistribution last="0">
            <route cost="123.85" probability="1.00000000" edges="4047432 -4420500 4420506 28095830 28095831 28095832 28095833 44204660 44204661 4420467 44204651 44204652 44204600 44204601 4420453 -4016366"/>
        </routeDistribution>
    </vehicle>
    <vehicle id="trips.trips.xml5" depart="5.00">
        <routeDistribution last="0">
            <route cost="188.71" probability="1.00000000" edges="48866641 -48866641 -4886660 48866581 -48866570 4898513 48985060 48985061 48985062 88777710 88777711 23317970 4319437 40067040 40067070 40067071 40067072 40067050 -40067050"/>
        </routeDistribution>
    </vehicle>
    <vehicle id="trips.trips.xml6" depart="6.00">
        <routeDistribution last="0">
            <route cost="87.01" probability="1.00000000" edges="-44204092 44204092 -28625982 -28625981 -4420417 44204130 44204131 3594370"/>
        </routeDistribution>
    </vehicle>
    <vehicle id="trips.trips.xml7" depart="7.00">
        <routeDistribution last="0">
            <route cost="313.57" probability="1.00000000" edges="-39554493 39554493 -39248620 -4840909 4840908 -39248720 -3924876 -39248742 -4871938 -4087374 28096961 28096962 28096963 28096964 28096965 4321111 43211100 43211101 43211102 43211103 43211104 43211105 43211106 43211107 43211108 43211109 432111010 432111011 -262834912 -262834911 -262834910 -26283499 -26283498 -26283497 -26283496 -36169814 -36169813 -36169812 -36169811 48413372"/>
        </routeDistribution>
    </vehicle>
    <vehicle id="trips.trips.xml8" depart="8.00">
        <routeDistribution last="0">
            <route cost="668.48" probability="1.00000000" edges="-104194032 -54452044 -54452043 -54452042 -54452041 -54452040 -40066681 23339459 44009481 49007313 59316120 59316121 59316122 59316123 4319353 4319349 31688710 31688711 31688712 31688700 -23342557 44167020 44167021 4416703 235707700 235707701 235707720 235707761 235707711 23570775 4319442 4352153 4352154 39248740 39248741 39248742 3924876 4840907 -4840906 44204092 -28625982 -28625981 -4420417 44204130 44204131 44204132 4420411 44204510 44204511 44204590 44204591 44204592 -4420462 4420469 4420473 4420476 -4420477 -4420478 4420478"/>
        </routeDistribution>
    </vehicle>
    <vehicle id="trips.trips.xml9" depart="9.00">
        <routeDistribution last="0">
            <route cost="288.91" probability="1.00000000" edges="39986153 -39986153 -39986152 39986432 59316123 4319353 4319349 31688710 31688711 31688712 31688700 -23342557 44167020 44167021 4416703 235707700 235707701 235707720 235707761 235707711 23570775 4319442 4352153 4352154 39248740 4871939 -4087374 28096961 28096962 -28096962"/>
        </routeDistribution>
    </vehicle>
    <vehicle id="trips.trips.xml10" depart="10.00">
        <routeDistribution last="0">
            <route cost="166.03" probability="1.00000000" edges="-4872391 4872390 -36399109 -36399108 -36399107 -36399106 -36399105 4872401 4872375 -4872377 -4872380 -4872384 -27963143 -28376065 -40473521 -40473520 -40066043 40474540 40474541"/>
        </routeDistribution>
    </vehicle>
    <vehicle id="trips.trips.xml11" depart="11.00">
        <routeDistribution last="0">
            <route cost="113.82" probability="1.00000000" edges="-48870590 38757580 38757581 38757582 -3875761 36455850 36455851 3645588 -36455871 4017241 10651340 10651344 -10651344"/>
        </routeDistribution>
    </vehicle>
    <vehicle id="trips.trips.xml12" depart="12.00">
        <routeDistribution last="0">
            <route cost="583.74" probability="1.00000000" edges="4840901 39554492 39554493 -39248620 -4840909 4840908 -39248720 -3924876 -39248742 -4871938 -4087374 28096961 28096962 28096963 28096964 28096965 4321111 43211100 43211101 43211102 43211103 43211104 43211105 43211106 43211107 43211108 43211109 432111010 432111011 -262834912 -262834911 -262834910 -26283499 -26283498 -26283497 -26283496 -26283495 -26283494 -26283493 -26283492 -26283491 -26283490 39251361 39251362 3875759 4319467 4319466 3875760 3875761 -38757582 -38757581 -38757580 38757570 38757571 38757572 38757573 -36457001 -36457000 -38755882 38759400 38759401 40471920 40471921 40471922 40471923 40471924 40471925 -42093311 42093300 42093301 42093320 -42093320"/>
        </routeDistribution>
    </vehicle>
    <vehicle id="trips.trips.xml13" depart="13.00">
        <routeDistribution last="0">
            <route cost="213.32" probability="1.00000000" edges="-28376620 -126931432 -28376061 -28376060 -3876270 36457120 102296670 10229671 36457122 36457123 36457124 36457125 36457126 36457127"/>
        </routeDistribution>
    </vehicle>
    <vehicle id="trips.trips.xml14" depart="14.00">
        <routeDistribution last="0">
            <route cost="52.23" probability="1.00000000" edges="39248731 4887287 23342557 -364571211 364571211"/>
        </routeDistribution>
    </vehicle>
    <vehicle id="trips.trips.xml15" depart="15.00">
        <routeDistribution last="0">
            <route cost="160.71" probability="1.00000000" edges="4871981 -4871981 4871982 48719800 48719801 -3617380 -4886939 43194522 4309236 4309237 4841462 4309235 15259455 152594560 4841460 -15259454 44204141 4420415 4872363 -4872363"/>
        </routeDistribution>
    </vehicle>
    <vehicle id="trips.trips.xml16" depart="16.00">
        <routeDistribution last="0">
            <route cost="245.65" probability="1.00000000" edges="-40066889 -364572014 -364572013 -364572012 -364572011 -364572010 -36457209 -36457208 -36457207 -36457206 -36457205 -36457204 -84340733 -84340732 -135241962 -135241961 -135241960 -43113623 -43113622 -14365570"/>
        </routeDistribution>
    </vehicle>
    <vehicle id="trips.trips.xml18" depart="18.00">
        <routeDistribution last="0">
            <route cost="455.97" probability="1.00000000" edges="3640320 -3640320 43211104 43211105 43211106 43211107 43211108 43211109 432111010 432111011 -262834912 -262834911 -262834910 -26283499 -26283498 -26283497 -26283496 -26283495 -26283494 -26283493 -26283492 -26283491 -26283490 39251361 39251362 3875759 4319467 4319466 3875760 3875761 -38757582 -38757581 -38757580 38757570 38757571 38757572 38757573 38751270 38751271 38751272 4006640 4006639 40066040 40066041 40066042 40066043 40473520 40473521 28376065 27963143 -4872383 28376410 28376411 28376412 -28376412"/>
        </routeDistribution>
    </vehicle>
    <vehicle id="trips.trips.xml19" depart="19.00">
        <routeDistribution last="0">
            <route cost="245.00" probability="1.00000000" edges="-36169810 36169810 36169811 36169812 36169813 36168905 -3616962 -26283494 -26283493 -26283492 -26283491 -26283490 39251361 39251362 3875759 4319467 4319466 3875760 3875761 -38757582 -38757581 -38757580 38757570 38757571 38757572 38757573 -36457001 -36457000 -4887175 -3875556 -3875558 48871712 -48871712"/>
        </routeDistribution>
    </vehicle>
    <vehicle id="trips.trips.xml20" depart="20.00">
        <routeDistribution last="0">
            <route cost="221.52" probability="1.00000000" edges="4898512 -4898512 -48869180+48869181 -4886917 40067112 -40067120 40069510 44167021 4416703 235707700 235707701 235707720 235707721 235707770 235707771 235707772 235707773 235707774 235707775 40471910 40471911 40471912 40471913 40471914 40471915 40471916 40471917 4898513 48985060 48985061 4899933 -4899933"/>
        </routeDistribution>
    </vehicle>
    <vehicle id="trips.trips.xml21" depart="21.00">
        <routeDistribution last="0">
            <route cost="90.37" probability="1.00000000" edges="4872378 4872377 -4872375 -4872401 36399105 36399106 36399107 36399108 36399109 363991010 363991011 363991012 -40067232 -40067231"/>
        </routeDistribution>
    </vehicle>
    <vehicle id="trips.trips.xml23" depart="23.00">
        <routeDistribution last="0">
            <route cost="340.87" probability="1.00000000" edges="4841303 -4841304 4420505 28095830 28095831 28095832 28095833 44204660 44204661 4420467 44204651 44204652 44204600 44204601 44204520 44204521 4420410 44204140 44204141 44204142 28625980 28625981 28625982 -44204092 4840906 -4840907 -3924876 -39248742 -39248741 -39248740 -4352154 -4352153 -4319442 -23570775 23570774 23570773 235707770 235707771 235707772 235707773 235707774 235707775 40471910 40471911 40471912 -4900318 49003151"/>
        </routeDistribution>
    </vehicle>
    <vehicle id="trips.trips.xml24" depart="24.00">
        <routeDistribution last="0">
            <route cost="313.45" probability="1.00000000" edges="4841340 -4841340 -35914783 -35914782 -35914781 -35914780 -35914840 -43211108 -43211107 -43211106 -43211105 -43211104 -43211103 -43211102 -43211101 -43211100 -4321111 -28096965 -28096964 -28096963 -28096962 -28096961 4087374 -4871939 -39248740 -4352154 -4352153 -4319442 -23570775 23570774 23570773 235707770 4900385 235707682 235707691 49003953 49003954 4900401 40067090 -40473371 40473371"/>
        </routeDistribution>
    </vehicle>
    <vehicle id="trips.trips.xml25" depart="25.00">
        <routeDistribution last="0">
            <route cost="103.67" probability="1.00000000" edges="-279638315 279638315 279638316 4006673 -364572013 -364572012 -364572011 364572011"/>
        </routeDistribution>
    </vehicle>
    <vehicle id="trips.trips.xml26" depart="26.00">
        <routeDistribution last="0">
            <route cost="297.83" probability="1.00000000" edges="40473160 40473161 4047446 49007312 46869710 46869711 -279638317 -279638316 -279638315 -279638314 -279638313 -279638312 38746934 -4872388 -36457207 -36457206 -36457205 -36457204 -84340733 -84340732 -84340731 -83833522 83833522"/>
        </routeDistribution>
    </vehicle>
    <vehicle id="trips.trips.xml27" depart="27.00">
        <routeDistribution last="0">
            <route cost="367.18" probability="1.00000000" edges="-42374271 42374271 -38759400 38755882 36457000 36457001 -38757573 -38757572 -38757571 -38757570 38757580 38757581 38757582 -3875761 36455850 36455851 3645588 -36455871 -36455870 -38760333 -10229668 -102296671 10229671 36457122 36457123 36457124 36457125 36457126 36457127 36457128 36457129 2837474 28374293 4886920 31688711"/>
        </routeDistribution>
    </vehicle>
    <vehicle id="trips.trips.xml28" depart="28.00">
        <routeDistribution last="0">
            <route cost="147.88" probability="1.00000000" edges="4047230 -40473520 -40066043 -40066042 -40066041 -40066040 -4006639 -4006640 -38751272 -38751271 -38751270 -38757573 -38757572 -38757571 -38757570 38757580 38757581 43144530 43144531"/>
        </routeDistribution>
    </vehicle>
    <vehicle id="trips.trips.xml29" depart="29.00">
        <routeDistribution last="0">
            <route cost="324.85" probability="1.00000000" edges="48869070 -4886906 -40067071 -40067070 -40067040 -4319437 -23317970 -88777711 -88777710 -48985062 -48985061 -48985060 -4898513 -40471917 -40471916 -40471915 -40471914 -40471913 -40471912 -40471911 -40471910 -235707775 -235707774 -235707773 -235707772 -235707771 -235707770 4047181 235707760 235707761 235707711 23570775 4319442 4352153 4352154 39248740 39248741 39248742 3924876 39248720 -4840908 4840909 39248620 -39554493 -39554492 -39554491 39554260 39554261 -39554261"/>
        </routeDistribution>
    </vehicle>
    <vehicle id="trips.trips.xml30" depart="30.00">
        <routeDistribution last="0">
            <route cost="193.14" probability="1.00000000" edges="38691569 -38761012 -38761011 -146181660 -14618169 -38757573 -38757572 -38757571 -38757570 38757580 38757581 38757582 -3875761 -3875760 -4319466 -4319467 -3875759 -39251362 -39251361 26283490 26283491 36281850 36281851 36281852 36281853 -36281853"/>
        </routeDistribution>
    </vehicle>
    <vehicle id="trips.trips.xml31" depart="31.00">
        <routeDistribution last="0">
            <route cost="193.44" probability="1.00000000" edges="36773712 -36773712 -36773711 48872801 48872802 48872900 48872901 48872902 23342557 -364571211 -364571210 2837474 -28374292 4047530 -233167790"/>
        </routeDistribution>
    </vehicle>
    <vehicle id="trips.trips.xml32" depart="32.00">
        <routeDistribution last="0">
            <route cost="308.12" probability="1.00000000" edges="4319321 4319429 4319431 4872373 -36399104 4872372 4319432 4319430 43194060 43194061 43194062 43194880 43194881 43194882 4319404 16944028 43193982 4001571 4319494 10578577 10578576 3593951 10578578 27935461 27935462 4319454 4871976 4871978 43194520 -4886940 3617380 36173790 36173791 36173761 -36173761"/>
        </routeDistribution>
    </vehicle>
    <vehicle id="trips.trips.xml33" depart="33.00">
        <routeDistribution last="0">
            <route cost="122.25" probability="1.00000000" edges="-48413380+48413381 -48413381+48413380 -4841340 -35914783 -35914782 -35914781 36403700 432111010 432111011 -262834912 -262834911 -262834910 -26283499 -26283498 -36170570 -36282450 -36282461 -36281531 -3628184"/>
        </routeDistribution>
    </vehicle>
    <vehicle id="trips.trips.xml34" depart="34.00">
        <routeDistribution last="0">
            <route cost="308.22" probability="1.00000000" edges="39986121 -40067242 -40067241 -40067240 40067231 40067232 -363991012 -363991011 -363991010 -36399109 -36399108 -36399107 -36399106 -36399105 4872401 4872376 4872379 48723820 48723821 27963140 27963141 27963990 27963991 27963992 27963993 40066550 -40066541 -40066611 40473712 -40473072"/>
        </routeDistribution>
    </vehicle>
    <vehicle id="trips.trips.xml35" depart="35.00">
        <routeDistribution last="0">
            <route cost="298.37" probability="1.00000000" edges="38765511 126931430 -233167192 -233167191 -233167190 -23316718 -38763671 115343832 36457120 102296670 10229671 36457122 36457123 36457124 36457125 36457126 36457127 36457128 36457129 364571210 364571211 -23342557 44167020 44167021 4416703 235707700 235707701 235707720 235707761 235707711 -36773715 36773715"/>
        </routeDistribution>
    </vehicle>
    <vehicle id="trips.trips.xml36" depart="36.00">
        <routeDistribution last="0">
            <route cost="102.09" probability="1.00000000" edges="-48719801 48719801 36173790 43211101 43211102 43211103 43211104 43211105 43211106 43211107 43211108 43211109 432111010 432111011 -262834912 -262834911 -44205090 -43172641"/>
        </routeDistribution>
    </vehicle>
    <vehicle id="trips.trips.xml37" depart="37.00">
        <routeDistribution last="0">
            <route cost="330.40" probability="1.00000000" edges="31688701 4887270 4887269 40015701 4886932 43194871 4319321 4319429 4319431 4872373 4872401 4872376 4872379 115343870 115343871 11534386 2837663 -36457202 43927620 43927621 -135241960 -43113623 143655660 -143655690"/>
        </routeDistribution>
    </vehicle>
    <vehicle id="trips.trips.xml38" depart="38.00">
        <routeDistribution last="0">
            <route cost="193.78" probability="1.00000000" edges="-38762112 38761840 38757573 38751270 38751271 38751272 4006640 4006639 40066040 40066041 40066042 40066043 40473520 40473521 28376065 -27963142 27963990 -4047247 27963832"/>
        </routeDistribution>
    </vehicle>
    <vehicle id="trips.trips.xml39" depart="39.00">
        <routeDistribution last="0">
            <route cost="255.86" probability="1.00000000" edges="40067094 -40067094 -40067093 -40067122 -40067121 -40067120 39248731 4887287 23342557 31688701 4887270 4887269 40015701 4886932 4886933 -4886934 36289120 36289121 38760330"/>
        </routeDistribution>
    </vehicle>
    <vehicle id="trips.trips.xml40" depart="40.00">
        <routeDistribution last="0">
            <route cost="568.37" probability="1.00000000" edges="233177830 233177831 -40067022 -40067021 -40067020 4047343 -30131062 -30131061 -30131060 -105734143 -105734142 -105734141 -105734140 -28374945 -28374944 3874633 -36399105 4872401 4872376 4872379 48723820 48723821 27963140 27963141 27963990 27963991 27963992 27963993 -40066560 -152592202 -152592201 -152592200 -40066672 -40066671 -40066670 -40472802 -5037404"/>
        </routeDistribution>
    </vehicle>
    <vehicle id="trips.trips.xml41" depart="41.00">
        <routeDistribution last="0">
            <route cost="402.64" probability="1.00000000" edges="198341711 198341712 -40066043 -40066042 -40066041 -40066040 -4006639 -4006640 -38751272 -38751271 -38751270 -38757573 -38757572 -38757571 -38757570 38757580 38757581 38757582 -3875761 -3875760 -4319466 -4319467 -3875759 -39251362 -39251361 26283490 26283491 26283492 26283493 26283494 26283495 26283496 26283497 26283498 26283499 262834910 262834911 -43172640 -4420493 -44204951 -4420500 4420506 28095830 28095710"/>
        </routeDistribution>
    </vehicle>
    <vehicle id="trips.trips.xml42" depart="42.00">
        <routeDistribution last="0">
            <route cost="149.19" probability="1.00000000" edges="-43113431 -43113430 152592202 40066560 40066561 40066562 40066563 -4006603 4006603"/>
        </routeDistribution>
    </vehicle>
    <vehicle id="trips.trips.xml44" depart="44.00">
        <routeDistribution last="0">
            <route cost="165.91" probability="1.00000000" edges="-4087374 4087374 4871938 39248742 3924876 4840907 -4840906 44204092 -28625982 -28625981 -4420417 44204130 44204131 44204132 4420411 44204510 -4420456 4840141 26839210 26839211 26839212 27961720 27961721 27961722 -27961722"/>
        </routeDistribution>
    </vehicle>
    <vehicle id="trips.trips.xml45" depart="45.00">
        <routeDistribution last="0">
            <route cost="304.51" probability="1.00000000" edges="233179690 -48869091 -48869090 -48869111 -48869110 40067032 40067033 40067034 -40067022 -40067021 -40067020 4900729 49007311 49007312 46869710 46869711 -400668810 -40066889 40066889"/>
        </routeDistribution>
    </vehicle>
    <vehicle id="trips.trips.xml46" depart="46.00">
        <routeDistribution last="0">
            <route cost="191.20" probability="1.00000000" edges="-43104491 43104491 42093080 42093081 40066120 40066121 40066122 38751733 38751730 -48871791 -48871790 27964140 27964141 -27963141 -27963140 -48723821 -48723820 -4872379 -4872376 3998673 -3998673"/>
        </routeDistribution>
    </vehicle>
    <vehicle id="trips.trips.xml47" depart="47.00">
        <routeDistribution last="0">
            <route cost="97.18" probability="1.00000000" edges="-48724082 48724082 -39251362 -39251361 26283490 26283491 26283492 26283493 26283494 3616962 -36168905 -36169813 3617056"/>
        </routeDistribution>
    </vehicle>
    <vehicle id="trips.trips.xml48" depart="48.00">
        <routeDistribution last="0">
            <route cost="194.29" probability="1.00000000" edges="-4047247 -27963831 -27963830 40066550 40066542 -38751733 -40066122 -40066121 -40066120 -42093081 -42093080 -43104491 -43104490 40471922 40471923 -40471923"/>
        </routeDistribution>
    </vehicle>
    <vehicle id="trips.trips.xml49" depart="49.00">
        <routeDistribution last="0">
            <route cost="432.82" probability="1.00000000" edges="23350932 233509301 49000413 49000410 -49000433 -49000432 -49000431 -49000430 -40067020 4047343 4319353 4319349 31688710 31688711 31688712 31688700 -23342557 44167020 44167021 4416703 235707700 235707701 235707720 235707761 235707711 23570775 4319442 4352153 4352154 39248740 39248741 39248742 3924876 4840907 -4840906 44204092 -28625982 -28625981 -4420417 44204130 44204131 44204132 4420411 44204510 44204511 44204590 44204591 44204592 4420461 -44204652 -44204651 44204651"/>
        </routeDistribution>
    </vehicle>
    <vehicle id="trips.trips.xml50" depart="50.00">
        <routeDistribution last="0">
            <route cost="119.63" probability="1.00000000" edges="-36279692 36279692 -26283498 -26283497 -26283496 -26283495 -26283494 -26283493 -26283492 -26283491 -26283490 39251361 39251362 3875759 4319467 4319466 3875760 3875761 -38757582"/>
        </routeDistribution>
    </vehicle>
    <vehicle id="trips.trips.xml53" depart="53.00">
        <routeDistribution last="0">
            <route cost="170.16" probability="1.00000000" edges="-4319465 -4319464 -36455850 -3875760 -4319466 -4319467 -3875759 -39251362 -39251361 26283490 26283491 36153120 36152330 -48724131 -48724130 36152620 4872414 -4872414"/>
        </routeDistribution>
    </vehicle>
    <vehicle id="trips.trips.xml54" depart="54.00">
        <routeDistribution last="0">
            <route cost="226.58" probability="1.00000000" edges="4887170 -48871712 3875558 3875556 4887175 36457000 36457001 -38757573 -38757572 -38757571 -38757570 38757580 38757581 38757582 -3875761 -3875760 -4319466 -4319467 -3875759 -39251362 -39251361 26283490 26283491 26283492 26283493 26283494 3616962 -36168905 -36169813 3617056"/>
        </routeDistribution>
    </vehicle>
    <vehicle id="trips.trips.xml55" depart="55.00">
        <routeDistribution last="0">
            <route cost="278.14" probability="1.00000000" edges="-36283971 36283971 -36281851 -36281850 -26283491 -26283490 39251361 39251362 3875759 4319467 4319466 3875760 36455850 36455851 3645588 -36455871 -36455870 -38760333 -10229668 -102296671 -102296670 -36457120 3876270 36399100 36399101 36399102 36399103 36399104"/>
        </routeDistribution>
    </vehicle>
    <vehicle id="trips.trips.xml56" depart="56.00">
        <routeDistribution last="0">
            <route cost="334.31" probability="1.00000000" edges="-28374940 -4006897 36457120 102296670 102296671 10229668 38760333 36455870 36455871 -3645588 -36455851 -36455850 -3875760 -4319466 -4319467 -3875759 -39251362 -39251361 26283490 26283491 26283492 26283493 26283494 26283495 26283496 26283497 26283498 26283499 262834910 262834911 -43172640 -4420493 -44204951"/>
        </routeDistribution>
    </vehicle>
    <vehicle id="trips.trips.xml57" depart="57.00">
        <routeDistribution last="0">
            <route cost="166.34" probability="1.00000000" edges="-4047555 23316718 10573415 36457011 36457012 36457013 36457014 198341710 198341711 198341712 -40066564 -40066563 -40066562 -40066561 40066550 -40066541 -40066611 40066611"/>
        </routeDistribution>
    </vehicle>
    <vehicle id="trips.trips.xml58" depart="58.00">
        <routeDistribution last="0">
            <route cost="123.76" probability="1.00000000" edges="28376410 -27963833 -27963832 -27963831 -27963830 40066550 40066542 -40066542"/>
        </routeDistribution>
    </vehicle>
    <vehicle id="trips.trips.xml59" depart="59.00">
        <routeDistribution last="0">
            <route cost="133.25" probability="1.00000000" edges="-4047247 4047247 -27963990 -27963141 -27963140 -48723821 -48723820 -4872379 -4872376 -4872401 36399105 36399106 36399107 36399108 36399109 363991010"/>
        </routeDistribution>
    </vehicle>
    <vehicle id="trips.trips.xml60" depart="60.00">
        <routeDistribution last="0">
            <route cost="322.89" probability="1.00000000" edges="-3594370 44204132 4420411 44204510 44204511 44204590 44204591 44204592 4420461 -44204652 -44204651 -4420467 -44204661 -44204660 -28095833 -28095832 -28095831 -28095830 -4420506 4420500 44204951 4420493 43172640 -262834911 -262834910 -26283499 -26283498 -26283497 -26283496 -26283495 -26283494 -26283493 -36283973 -36283972 -36283971 -36283970 36283970"/>
        </routeDistribution>
    </vehicle>
    <vehicle id="trips.trips.xml61" depart="61.00">
        <routeDistribution last="0">
            <route cost="542.76" probability="1.00000000" edges="8159282 -8159282 -233574330 -43113761 43113780 43113781 40473442 40473443 40473444 36457201 36457202 -2837663 115343850 115343851 27963835 -115343871 -115343870 -4872381 4872380 4872377 4872374 4872372 4319432 4319430 43194060 43194061 43194062 43194880 43194881 43194882 4319404 16944028 43193982 4001571 4319494 10578577 10578576 3593951 48872802 48872900 48872901 48872902 44167020 44167021 4416703 235707700 235707701 235707720 235707721 235707770 235707771 235707772 235707773 235707774 235707775 40471910 40471911 -4900330 4900330"/>
        </routeDistribution>
    </vehicle>
    <vehicle id="trips.trips.xml62" depart="62.00">
        <routeDistribution last="0">
            <route cost="316.52" probability="1.00000000" edges="36457122 -36457122 -10229671 102296671 10229668 38760333 36455870 36455871 -3645588 -36455851 -36455850 -3875760 -4319466 -4319467 -3875759 -39251362 -39251361 26283490 26283491 26283492 26283493 26283494 26283495 26283496 26283497 26283498 26283499 262834910 262834911 -43172640 -4420493 -44204951 -4420498 4047292 -4420502 4420501"/>
        </routeDistribution>
    </vehicle>
    <vehicle id="trips.trips.xml63" depart="63.00">
        <routeDistribution last="0">
            <route cost="284.95" probability="1.00000000" edges="-4871968 -36173761 -36173791 43211101 43211102 43211103 43211104 43211105 43211106 43211107 43211108 43211109 432111010 432111011 -262834912 -262834911 -262834910 -26283499 -26283498 -26283497 -26283496 -26283495 -26283494 -26283493 -26283492 -26283491 -26283490 39251361 39251362 3875759 4319467 4319466 3875760 36455850 36455851 3645588 -36455871 4017241 10651340"/>
        </routeDistribution>
    </vehicle>
    <vehicle id="trips.trips.xml64" depart="64.00">
        <routeDistribution last="0">
            <route cost="242.39" probability="1.00000000" edges="143655660 -143655660 43113623 135241960 43927622 43927623 43927624 43927625 43927626 -49070574 -49070573 -49070572 -49070571 -49070570 40472510 40472511 40472512 -40472401 4311344 -43113472 43113472"/>
        </routeDistribution>
    </vehicle>
    <vehicle id="trips.trips.xml65" depart="65.00">
        <routeDistribution last="0">
            <route cost="598.43" probability="1.00000000" edges="-4420461 4420461 44204600 44204601 44204520 44204521 4420410 44204140 -15259453 3594370 4841453 4319453 4871979 4871977 4319455 48872800 48872801 48872802 48872900 48872710 48872711 4887269 40015701 4886932 43194871 4319321 4319429 4319431 4872373 4872401 4872376 4872379 48723820 48723821 27963140 27963141 27963990 27963991 27963992 27963993 -40066560 -152592202 -152592201 -152592200 49070570 49070571 -40066642"/>
        </routeDistribution>
    </vehicle>
    <vehicle id="trips.trips.xml66" depart="66.00">
        <routeDistribution last="0">
            <route cost="280.18" probability="1.00000000" edges="-48724131 48724131 -36152330 -36153120 26283492 26283493 26283494 26283495 26283496 26283497 26283498 26283499 262834910 262834911 -43172640 -4420493 -44204951 -4420500 4420506 28095830 28095831 28095832 28095833 44204660 44204661 4420467 26839420 26839421 26839422 -48402930 -31005021 -31005020 31005020"/>
        </routeDistribution>
    </vehicle>
    <vehicle id="trips.trips.xml67" depart="67.00">
        <routeDistribution last="0">
            <route cost="149.66" probability="1.00000000" edges="-40067060 40067060 48869081 -40067032 48869110 48869111 48869112 -40067070 -40067040 -4319437 -23317970 -88777711 -23317784 23317784"/>
        </routeDistribution>
    </vehicle>
    <vehicle id="trips.trips.xml68" depart="68.00">
        <routeDistribution last="0">
            <route cost="315.82" probability="1.00000000" edges="15259454 4841459 152594562 4841457 15259457 15259458 4309234 4841461 4841453 4319453 4871979 4871977 4319455 48872800 48872801 48872802 48872900 48872901 48872902 48872903 43193500 43193501 4319351 4319352 4900729 49007311 49007312 -49007312"/>
        </routeDistribution>
    </vehicle>
    <vehicle id="trips.trips.xml69" depart="69.00">
        <routeDistribution last="0">