<?xml version="1.0"?>
<!-- generated on Thu Jan 10 13:11:16 2013 by SUMO duarouter Version 0.16.0
<?xml version="1.0" encoding="UTF-8"?>

<configuration xmlns:xsi="http://www.w3.org/2001/XMLSchema-instance" xsi:noNamespaceSchemaLocation="http://sumo.sf.net/xsd/duarouterConfiguration.xsd">

    <input>
        <net-file value="residential_grid.mapa.xml"/>
        <alternative-files value="trips_048.rou.alt.xml"/>
        <weight-files value="dump_048_900.xml"/>
    </input>

    <output>
        <output-file value="trips_049.rou.xml"/>
        <vtype-output value=""/>
        <exit-times value="false"/>
    </output>

    <processing>
        <ignore-errors value="true"/>
        <max-alternatives value="5"/>
        <with-taz value="false"/>
        <routing-algorithm value="dijkstra"/>
        <gawron.beta value="0.9"/>
        <gawron.a value="0.5"/>
        <keep-all-routes value="false"/>
        <logit value="false"/>
        <logit.beta value="0.15"/>
        <logit.gamma value="1"/>
    </processing>

    <time>
        <begin value="0"/>
    </time>

    <report>
        <verbose value="false"/>
        <no-warnings value="false"/>
        <no-step-log value="true"/>
    </report>

    <random_number>
        <random value="false"/>
    </random_number>

</configuration>
-->
<routes xmlns:xsi="http://www.w3.org/2001/XMLSchema-instance" xsi:noNamespaceSchemaLocation="http://sumo.sf.net/xsd/routes_file.xsd">
  <route id="route1" edges="-6057152 6057152 6056971 6058269#3 -131520200#11 6063387#0 -6055751 6062241#1 -6062357 6061784#4 6061784#5 -112433938#8 -112433938#7 6060413#0 6060413#1 -6056691#4 50775191#6 50775191#7 50775191#8 50775191#10 50775191#12 -130908064#0 -112320365"/>
  <route id="route2" edges="125568102#12 6061421#0 6063259#2 6063259#3 6063259#4 6055237#2 6056694#4 6056694#5 6058281#10 6060558#2"/>
  <route id="route3" edges="6055425#2 -6055425#2 -6055425#1 -6055425#0 38117920#0 38117920#1 38117920#2"/>
  <route id="route4" edges="6055750#2 117117764#1 117115862 6060837#0 6060837#1 6063089#7 117131126#7 108189474#0 -108189476#4 -108189476#3 -108189476#2 108189476#2"/>
  <route id="route5" edges="6063387#5 -112433938#12 -112433938#11 -112433938#10 -112433938#9 -112433938#8 -112433938#7 6060413#0 6060413#1"/>
  <route id="route6" edges="6058246#3 111851484#3 27923406 6057006#1 6063089#0 6063089#1 6062241#4 6056940#1 6063387#5 6063387#6 6057501#0 6057501#1 117090352#3 117131820#0 117131820#1 117131820#2 6056100#0 6056100#1 -6060558#5"/>
  <route id="route7" edges="117115853#0 117115853#1 6060832 -117115862 -117115859#1 -117115859#0 -117116047 -117116043 -6062355 6061784#2 -130908261#5 -130908261#4 -130908261#3 -130908261#2 -6058246#1 -6055208#2 -6055208#1 130908301#4 130908299#0"/>
  <route id="route8" edges="-6059894#0 6060391#2 6055141#3 -130676661#3 6058269#0 6058269#1 6058269#2 6058269#3 -131520200#11 -131520200#10 -131520200#9 -131520200#8 -131520200#7 -131520200#6 -131520200#5 -131520200#4 -131520200#3 -131520200#2 -131520200#1 -6054623#0"/>
  <route id="route9" edges="6056938 111851488 111851487#0 111851487#1 111851487#2 -50775191#0 130285132#1 6057006#1 6063089#0 6063089#1 6063089#2 6063089#3 6063089#4 6063089#5 6063089#6 6063089#7 6063089#8 117090350#1 117090354 117090348#0 117090348#1 -117090348#1"/>
  <route id="route10" edges="-6062471#2 6062471#2 6062471#3 125568102#0 125568102#1 125568102#2 -6052339 131520200#6 131520200#7 131520200#8 6061784#1 6061784#2 6061784#3 6061784#4 6063089#1 6062241#4 6062241#5 112433938#11 6055237#0 6055237#1 6063259#5 6063259#6"/>
  <route id="route11" edges="-6055425#13 6055425#13 6055425#14 6055425#15 131118562 -6061421#10 -6061421#9 -6061421#7 -6061421#6 -6063387#11 -6060558#0 -6061421#4 -6061421#3 -6061421#2 -6061421#1 -6061421#0 -125568102#12 -125568102#11 -125568102#10 6057006#1 50775193 -6054821#7 -6054821#6 -6060445#1 -6060445#0 -131520200#6 -131520200#5 -131520200#4 -131520200#3 -131520200#2 -130908225#2 -130908225#0"/>
  <route id="route12" edges="6060413#1 -6056691#4 50775191#6 50775191#7 -6058553#3 6058604 -112320577#0 112320579 130927011 -130927011"/>
  <route id="route13" edges="-149467811 149467811 149467810#1 6060832 -117115862 -117115859#1 -117115859#0 6058281#2 -6063285#1 6063387#3 -6063089#2 -6063089#1 -6063089#0 27923411 125568102#9 -125568102#9"/>
  <route id="route14" edges="-6053886#6 -6061421#6 -6063387#11 6060558#1 -6058281#10 6056694#6 6056694#7 -117117777#1 -117117777#0 -117117772#3 -117117772#2 -117117772#1 6056940#5 -117115226#0 -6060837#2 6063089#7 -117131126#6 -117131126#5 -117131126#4 -117131126#3 117117762#2"/>
  <route id="route15" edges="6056694#11 108189476#1 108189476#2 108189476#3 -117131821#0 -117131126#9 -117131126#7 -117131126#6 -117131126#5 -117131126#4 -131520199#2 -131520199#1 -131520199#0 -117090351#0 -117090353 6056970"/>
  <route id="route16" edges="5981010#0 -5981010#0 -6055425#12 -117115227#1 -117115227#0 -117115225 -6056694#8 -117117777#1 -117117777#0 -117117772#3 -117117772#2 -117117772#1 -6056940#4 -6056940#3 -6056940#2 -6056940#1 -6062241#4"/>
  <route id="route17" edges="-6055740 6055141#3 -130676661#3 6058269#0 6058269#1 6058269#2 6058269#3 -131520200#11 6063387#0 -6055751 6062241#1 -6062357 6061784#4 6061784#5 6061784#6 6061784#7 6061784#8 131520248#0 131520248#1 131520248#2 -6051313 125568102#17"/>
  <route id="route18" edges="-6056100#0 -117131820#2 -117131820#1 -117131820#0 -6063259#7 -6063259#6"/>
  <route id="route19" edges="-130908064#2 130908064#2 130908064#3 130908064#4 130908064#5 -6054055#3 6053886#0"/>
  <route id="route20" edges="-6056940#6 -6056940#5 -117117772#0 -117117774 -117117776 -117117764#2 -117115859#1 -117090349#1 -117090349#0 -6060094 6055141#0 -130676661#4 -130676661#3 -130676661#2 -130676661#1 38605849#0 38605849#1 -38605849#1"/>
  <route id="route21" edges="-6058246#0 6058246#0 6055208#3 125568102#5 125568102#6 125568102#7 125568102#8 125568102#9 6057006#1 6063089#0 6063089#1 6063089#2 6063089#3 6063089#4 6063089#5 6063089#6 6063089#7 117131126#7 108189474#0 -108189474#0"/>
  <route id="route22" edges="6055106#1 6055106#2 6061455 6057497 6054055#2 6054055#3 130908064#6 130908064#7 130908064#8"/>
  <route id="route23" edges="-6063215 -117125681#0 -117125673#1 -117125673#0 117125683#2 117125683#3 -131520199#0 -131520200#15 -131520200#14 -131520200#13 -131520200#12 -131520200#11 6063387#0 -6055751 6062241#1 -6062357 6061784#4 -6063089#0 27923411 6057008#1 -111851484#3 6058246#4 -111851487#1 6063356#6 -112433938#2 -112433938#1 130908296#5 -6056938"/>
  <route id="route24" edges="-6058002 -6063387#14 -130908064#11 -130908064#10 -6062245 -6053886#2 -125568102#17 -125568102#16 -125568102#15 -125568102#14 -125568102#13 -125568102#12 -125568102#11 -125568102#10 -125568102#9 -125568102#8 -125568102#7 -125568102#6 -125568102#5 -125568102#4 -131520200#4 -6063356#0 6056969#3"/>
  <route id="route25" edges="-6056938 6061701#1 112433938#0 112433938#1 112433938#2 6063356#7 6063356#8 6063356#9 6063356#10 50775191#7 50775191#8 50775191#10 6062805#1 130908064#2 130908064#3 6063369#0 6057928"/>
  <route id="route26" edges="-117131130#2 -117131130#1 -117131130#0 -6057501#1 -6057501#0 -6058884#1 6055237#1 -6063259#4 6062241#9 -6056694#1 -6056694#0 125568102#15 -6060555#1 -6060555#0 6054055#1 -6057497 -6061455 6061455"/>
  <route id="route27" edges="-117090349#1 -117090349#0 -131520200#13 -131520200#12 -131520200#11 -131520200#10 -131520200#9 -131520200#8 -131520200#7 -131520200#6 -131520200#5 -125568102#3 -125568102#2 125568102#2"/>
  <route id="route28" edges="130676672#0 130676672#1 130676662 130676661#0 130676661#1 130676661#2 130676661#3 -6055141#3 -6060391#2 -6060391#1 6060962#0 6060962#1 6060962#2 -6060833 6062479#1 -6062479#1"/>
  <route id="route29" edges="117125674#1 -117125674#1 117117767 117125677 117117768#0 117090351#0 117090351#1 117090351#2 117090351#3 117090350#0 -6063089#8 117131126#7 117131126#9 117131821#0 117131821#1"/>
  <route id="route30" edges="-117115226#1 117115226#1 117115229 117115224 117115228 117115225 117115227#0 117115227#1 6055425#12 5981010#0 -5981010#0"/>
  <route id="route31" edges="-6052453 6052453 6058246#0 6058246#1 6058246#2 6058246#3 6058246#4 6058246#5 50775191#4 50775191#5 50775191#6 50775191#7 50775191#8 50775191#10 50775191#12 50775191#13 -130908023#2 -130908023#1 70516498#2"/>
  <route id="route32" edges="-130908227#6 112433938#2 -6063356#6 -6063356#5 111851484#2 111851484#3 27923406 6057006#1 50775193 -6054821#7 -6054821#6 -6054821#5 131520200#8 131520200#9 131520200#10 131520200#11 131520200#12 131520200#13 131520200#14 131520200#15 131520199#0 131520199#1 131520199#2 131520199#3 6061473#5"/>
  <route id="route33" edges="6063089#6 6063089#7 117131126#7 117131126#9"/>
  <route id="route34" edges="-6053886#8 117090352#8 117090352#9 -6057932#6 -6057932#5 -6057932#4 -6057932#3 -6057932#2 -6057932#1 -6054055#4 -130908064#5 -130908064#4 -130908064#3 -130908064#2 -6062805#1 6061475#0"/>
  <route id="route35" edges="-130908064#5 130908064#5 -6054055#3 -6054055#2 -6054055#1 -6054055#0 -6060452#0 -125568102#13 -125568102#12 -125568102#11 -125568102#10 6057006#1 50775193 -6054821#7 -6054821#6"/>
  <route id="route36" edges="-6063087#1 6063087#1 111851481 -130908227#3 6063282#0 6063282#1 6063282#2 6063282#3 125568102#7 125568102#8 125568102#9 6057006#1 6063089#0 6063089#1 6063089#2 6063089#3 6063089#4 6063089#5 117117772#0 117117772#1 131520055#1 131520055#2 117131126#10 -117131126#10"/>
  <route id="route37" edges="-130908261#5 130908261#5 6061784#3 6061784#4 6063089#1 6063089#2 6063089#3 6063089#4 117090352#0 6056940#4 117117772#1 117117772#2 117117772#3 117117777#0 117117777#1 117117777#2 117117777#3 117117777#4 -131052364#1"/>
  <route id="route38" edges="-6063089#3 6063089#3 6063089#4 6063089#5 117117772#0 117117772#1 117117772#2 117131130#1 117131130#2 117131126#11"/>
  <route id="route39" edges="-6058281#8 -6063259#6 -6063387#7 -6063387#6 -6063387#5 -6056940#1 -6062241#4 -6063089#1 -6063089#0 27923411 -125568102#8 -125568102#7 -125568102#6 -130908261#2 -130908261#1 -130908261#0 130908299#0"/>
  <route id="route40" edges="130908023#2 -50775191#13 -50775191#12 -50775191#10 -50775191#8 -50775191#7 -50775191#6 6056691#4 -6060413#1 -6060413#0 112433938#7 112433938#8 112433938#9 6056940#0 -6062241#4"/>
  <route id="route41" edges="-117117764#1 -117117764#0 -117117769 131520200#15 -117090351#0 -117090353 6056970 117117762#0 -117125683#2 -117125683#1 117125672 117125965#0 -117131126#0 -117131122#1"/>
  <route id="route42" edges="-112433936#4 -112433936#3 6063356#9 6056691#3 6056691#4 6056691#5 6060452#1 6060555#1 -125568102#15 6056694#0 -6056694#0"/>
  <route id="route43" edges="-131520200#8 6054821#5 6054821#6 6054821#7 50775192 6057008#1 -111851484#3 6058246#4 6058246#5 50775191#4 50775191#5 50775191#6 6059959#0 -6055106#1 50775191#10 50775191#12 -130908064#0 130908017"/>
  <route id="route44" edges="117117772#1 -131520055#0 -117131818 -112433938#13 -112433938#12 6055237#0"/>
  <route id="route45" edges="117117764#1 -117117764#1 -6055750#2 -117090349#0 -131520200#13 -131520200#12 -131520200#11 -131520200#10 -131520200#9 -131520200#8 -131520200#7 -131520200#6 6052339 -125568102#2 -125568102#1 -125568102#0 125568102#0"/>
  <route id="route46" edges="5988761#4 -5988761#4 -5984997 6055425#10 -6053886#10 -117115227#0 -117115225 -6056694#8 -117117777#1 -117117777#0 -117117772#3 -117117772#2 -117117772#1 -6056940#4 -6056940#3 -6058281#4 -6063089#3 -6063089#2 -6062241#3 -6062241#2 -6062241#1 -6062241#0 -131520200#9 -6061784#0 -6054821#3 -6054821#2 38606609#0 38606610#0 38606610#1 -38606610#1"/>
  <route id="route47" edges="-6055750#1 -6058281#0 -131520200#12 -131520200#11 -131520200#10"/>
  <route id="route48" edges="6063089#0 6063089#1 6063089#2 6063089#3 6063089#4"/>
  <route id="route49" edges="6056940#5 -6056940#5 -117117772#0 -117117774 -117116046#1 -117116046#0 6058281#3"/>
  <route id="route50" edges="-117131126#4 -131520199#2 -131520199#1 -131520199#0 -131520200#15 -131520200#14 117090349#0 117090349#1 117090349#2 -117116046#0 -6063285#1 -6063285#0 6063285#0"/>
  <route id="route51" edges="-108189476#2 108189476#2 108189476#3 -117131821#0 -117131126#9 -6056940#6 -6056940#5 -6056940#4 -117090352#0 -6063089#4 -6063089#3 -6063089#2 -6063089#1 -6063089#0 27923411 125568102#9 125568102#10"/>
  <route id="route52" edges="-6055425#7 108189476#0 -6056694#11 -117131126#12 -117131820#3 -117131820#2 -117115224 -117115229 -131520055#1 -117117772#1 -6056940#4 -6056940#3 -6056940#2 -6056940#1 -6062241#4 -6063089#1 -6063089#0 27923411 -125568102#8 -6060406#1 -6060406#0 6060406#0"/>
  <route id="route53" edges="-117116043 -6062241#1 6055751 -6063387#0 131520200#11 -6058269#3 -6056971 -6057152"/>
  <route id="route54" edges="6063089#1 -6063089#1 -6063089#0 50775193 50775192 6057008#1 -111851484#3 -111851484#2 -111851484#1 -111851484#0 130908227#4 -111851488 111851488"/>
  <route id="route55" edges="117131122#0 -6062479#1 6060833 117125683#0 117125683#1 117125683#2 117125683#3 131520199#1 131520199#2 117131126#4 117131126#5 117090350#0 117090350#1 117090354 117090348#0 117090348#1 130676665 131463009#3 6055425#0 6055425#1 6055425#2 6055425#3 5988761#0 5988761#1"/>
  <route id="route56" edges="-6062162 -6063086#0 6063086#3 6063086#4 -117090350#1 -6063089#8 -6063089#7 -6060837#1 -117116046#2 -117117776 -117117764#2 -117115859#1 -117115859#0 -117116047 -117116043"/>
  <route id="route57" edges="6061475#0 6061475#1 130908011#2 -130908017 130908064#0 130908064#1 130908064#2 130908064#3 130908064#4 130908064#5 130908064#6 130908064#7 130908064#8 130908064#9 130908064#10 -6055235#1 -6055235#0 6060558#0 6060558#1 6060558#2 6060558#3 6060558#4 6060558#5 6060558#6 -117131126#13 -6056694#10"/>
  <route id="route58" edges="6063387#5 -112433938#12 -112433938#11 6062241#6 6062241#7 6062241#8 -6063259#3 -6063259#2 -6063259#1 6060452#0 -6056691#5 -6056691#4 50775191#6 50775191#7 -6058553#3 -6058553#2 130908227#10 112320579 130927011"/>
  <route id="route59" edges="6056694#7 -117117777#1 -117117777#0 -117117772#3 -117117772#2 -117117772#1 -117117772#0 -117117774 -117116046#1 -117090349#2 -117090349#1 -6055750#1 -6058281#0 -131520200#12 -131520200#11 -131520200#10"/>
  <route id="route60" edges="-38132699#2 -38132699#1 -38132699#0 112433936#0 112433936#1 130908227#8 130908227#9"/>
  <route id="route61" edges="50775191#4 -50775191#4 -6058246#5 -6058246#4 111851484#3 27923406 6057006#1 50775193 -6054821#7 -6054821#6 -6054821#5 131520200#8 131520200#9 131520200#10 131520200#11 -6058269#3 -6058269#2 -6058269#1 -6058269#0 -130676661#2"/>
  <route id="route62" edges="-6060413#1 6063259#0 6063259#1 6061421#1 131520248#0 6056694#1 6062241#10 6061421#4 6061421#5 6061421#6"/>
  <route id="route63" edges="-117131821#0 -117131126#9 -117131126#7 -117131126#6 -117131126#5 -6061473#6 -6061473#5 -6061473#4 6061473#4"/>
  <route id="route64" edges="6062241#10 6061421#4 6060558#0 6060558#1 6060558#2 6060558#3 6060558#4 6060558#5 6060558#6 -6055425#7 -6055425#6 -6055425#5 -6055425#4 -6055425#3 -6055425#2 -6055425#1 -6055425#0 38117920#0 38117920#1 38117920#2 131463009#0 124688165 -117090348#1 -117090348#0 -6056977#3 6063086#4"/>
  <route id="route65" edges="130908064#7 130908064#8 130908064#9 130908064#10 -6055235#1 -6055235#0 6060558#0 -6063387#10 -6063387#9 6056774#0 6056774#1 -117090352#4 117131820#0"/>
  <route id="route66" edges="130908261#2 125568102#6 125568102#7 125568102#8 125568102#9 125568102#10 125568102#11 -112433938#7 6060413#0 6060413#1 6056691#5 6054055#0 6054055#1 6054055#2 6054055#3 -130908064#5 -130908064#4 6063369#0"/>
  <route id="route67" edges="-6053886#7 6053886#7 117090352#8 117090352#9 -6057932#6 -6057932#5 -6057932#4 -6057932#3 -6057932#2 -6057932#1 -6057932#0 -6058243#1 -6058243#0 -130908064#4 -130908064#3 6056686 -6062805#2 -130908064#1 -130908064#0 -112320365 -131052342#1 -6054093#0 112319942#1"/>
  <route id="route68" edges="-130908064#9 130908064#9 130908064#10 -6055235#1 -6055235#0 6060558#0 -6063387#10 6056694#5 6056694#6 6056694#7 -117117777#1 -117117777#0 -117117772#3 -117117772#2 -117117772#1 -117117772#0 -117117774 -117117776 -117117764#2 -117117764#1 -117117764#0 -117117769 131520200#15 131520199#0 -131520199#0"/>
  <route id="route69" edges="-130676661#3 6058269#0 6058269#1 6058269#2 6058269#3 -131520200#11 -131520200#10 -131520200#9 -131520200#8 -131520200#7 6060445#0 -6055210 6060406#0 -130908261#3 -130908261#2 -130908261#1 -130908261#0 -6062351#1"/>
  <route id="route70" edges="125568102#18 125568102#19 130908064#9 130908064#10 130908064#11 130908064#12 131052364#0 131052364#1 -117117777#4 6053886#9 6053886#10 -6055425#10"/>
  <route id="route71" edges="6055425#0 -117131822#1 108189476#2 108189476#3 -117131821#0 -117131126#9 -6056940#6 -6056940#5 -6056940#4 -6056940#3 -6058281#4 -6063089#3 -6063089#2 -6063089#1 -6063089#0 27923411 6057008#1 -111851484#3 -6058246#3 -6063282#2 -6063282#1 -6063282#0 -130908227#2 -130908227#1 -130908227#0 -130908225#2 -130908225#0 -6062798#2 -6062798#1 6062798#1"/>
  <route id="route72" edges="-6054623#1 131520200#1 131520200#2 131520200#3 131520200#4 131520200#5 131520200#6 131520200#7 131520200#8 131520200#9 131520200#10 131520200#11 131520200#12 -131520200#12"/>
  <route id="route73" edges="-6056694#10 -6056694#9 -117115228 -117115224 -117115229 -117115226#1 -117115226#0 117115226#0"/>
  <route id="route74" edges="-6056691#1 130908296#2 130908296#3 130908296#4 130908296#5 130908296#6 130908296#7 6062351#0 -130908227#1 -130908227#0 -130908225#2 -130908225#0 -6062798#2 -6056248#0 -6062806#0 6062806#0"/>
  <route id="route75" edges="-131520200#8 6054821#5 -6060445#1 -6055210 6060406#0 -130908261#3 -130908261#2 6058246#2 6058246#3"/>
  <route id="route76" edges="117125683#1 -117125671 -117125674#1 117117767 117125677 117117768#0 117117768#1 117117769 117117764#0 117117764#1 117117764#2 117117776 117117774 117117772#0 117117772#1 117117772#2 117117772#3 117117777#0 117117777#1 117117777#2 117117777#3 117117777#4 117117777#5 6055425#15 131118562 -6061421#10 -6057932#6 -6057932#5 -6057932#4 125568102#21"/>
  <route id="route77" edges="-6060558#1 -6060558#0 -6061421#4 -6062241#10 -6056694#1 131520248#1 131520248#2 -131520248#2"/>
  <route id="route78" edges="130908225#0 130908225#2 130908227#0 130908227#1 130908227#2 6063282#0 6063282#1 6063356#4 6063356#5 6063356#6 6063356#7 6063356#8 6063356#9 6056691#3 6056691#4 6056691#5 6060452#1 6060555#1 125568102#16 6051313 131520248#3 125568102#18 125568102#19 130908064#9 130908064#10 130908064#11 6063387#14 6063387#15"/>
  <route id="route79" edges="-117115862 117117764#2 117117776 117117774 6063089#6 6063089#7 -117131126#6"/>
  <route id="route80" edges="117117767 -117117767 -6055083#1 -6059894#0 6059894#0"/>
  <route id="route81" edges="-130908227#1 130908227#1 130908227#2 6063282#0 6063282#1 6063356#4 6063356#5 6063356#6 112433938#3 -50775191#3 -112433938#4"/>
  <route id="route82" edges="-130908301#2 6056969#2 6063356#0 131520200#4 125568102#4 125568102#5 125568102#6 125568102#7 125568102#8 125568102#9 125568102#10 125568102#11 125568102#12 6061421#0 6061421#1 131520248#0 131520248#1 131520248#2 131520248#3 125568102#18 125568102#19 125568102#20 6057932#4 6057932#5 6057932#6 6061421#10"/>
  <route id="route83" edges="-6061784#7 6061784#7 6063259#3 6063259#4 -6055237#1"/>
  <route id="route84" edges="-131520200#0 131520200#0 131520200#1 131520200#2 131520200#3 131520200#4 131520200#5 131520200#6 131520200#7 -6054821#4 -6054821#3 -6054821#2 -6054821#1 -6054821#0 130676672#1 130676662 130676661#0 38605849#0 33968348#1 34025919 34025912"/>
  <route id="route85" edges="-117090351#1 -131520200#15 -131520200#14 -131520200#13 -131520200#12 -131520200#11 6063387#0 -6055751 6062241#1 -6062357 6061784#4 -6063089#0 27923411 6057008#1 -111851484#3 6058246#4 6058246#5 50775191#4 50775191#5 50775191#6 50775191#7 50775191#8 -6055106#0 130908227#12 6062805#0"/>
  <route id="route86" edges="117131820#2 117131820#3 117131822#0 108189476#2 108189476#3 117131821#1"/>
  <route id="route87" edges="-6062241#1 6055751 -6063387#0 131520200#11 -6058269#3 -6058269#2 -6058269#1 -6058269#0 -130676661#2 -130676661#1 38605849#0 33968348#1 34025919 -33968439"/>
  <route id="route88" edges="-6061473#1 6061473#1 6061473#2 6061473#3 6061473#4 -131520199#3 117131126#4 117131126#5 117131126#6 117131126#7 117131126#9 117131126#10 117131126#11 117131126#12 117131126#13 6055425#8 6055425#9 -6055425#9"/>
  <route id="route89" edges="-130908261#3 -130908261#2 6058246#2 -6063282#2 6063356#4 6063356#5 6063356#6 6063356#7 -6058217#2 130908227#7 -112433936#1 -130908296#2 -130908296#1 -6058553#0 38132699#2 130908011#0 -112319942#1 112319942#1"/>
  <route id="route90" edges="-6061701#1 -6061701#0 6063087#1 130908296#7 6062351#0 -130908227#1 130908227#1"/>
  <route id="route91" edges="-6053886#0 6053886#0 6053886#1 6053886#2 6053886#3 -6055235#0 6060558#0 6060558#1 6060558#2 6060558#3 6060558#4 6060558#5 -6056100#1"/>
  <route id="route92" edges="38606610#1 -38606610#1 -38606610#0 -38606609#0 6054821#2 6054821#3 6054821#4 6054821#5 -6060445#1 -6055210 6060406#0 6060406#1 125568102#8 6057008#1 27923406"/>
  <route id="route93" edges="-6055237#0 112433938#12 -6063387#5 -6063387#4 -6063387#3 -6063387#2 -6063387#1 -6063387#0 131520200#11 -6058269#3 -6058269#2 -6058269#1 -6058269#0 -130676661#2 -130676661#1 38605849#0 33968348#1 34025919 34025912"/>
  <route id="route94" edges="-108189474#0 -117131126#7 -6063089#7 -6060837#1 -117116046#2 -117117776 -117117764#2 -117115859#1 -117115859#0 -6058281#1 -6058281#0 -131520200#12 -131520200#11 -131520200#10 -131520200#9 -131520200#8 -131520200#7 -131520200#6 6052339 -6056969#3 -6056969#2 -6056969#1 -130908225#0 -6062798#2"/>
  <route id="route95" edges="-6061786#0 -125568102#18 -125568102#17 -125568102#16 -125568102#15 -125568102#14 -125568102#13 -125568102#12 112433938#8 -6061784#5 -6061784#4 -6061784#3 -6061784#2 -6061784#1 131520200#9 -131520200#9"/>
  <route id="route96" edges="111851481 130908227#4 111851487#0 111851487#1 111851487#2 50775191#1 -6058598#1 -6058598#0 125568102#11 125568102#12 6061421#0 6063259#2 6063259#3 6062241#9 6062241#10 6061421#4 6055235#0 -6053886#3 6062245"/>
  <route id="route97" edges="-6062471#0 6062471#0 6062471#1 6062471#2 6062471#3 125568102#0 125568102#1 125568102#2 -6052339 131520200#6 131520200#7 131520200#8 131520200#9 131520200#10 131520200#11 131520200#12 131520200#13 131520200#14 131520200#15 131520199#0 131520199#1 131520199#2 117131126#4 -6061473#6 -6056980"/>
  <route id="route98" edges="-6055083#1 -6059894#0 6060391#2 6055141#3 -130676661#3 6058269#0 6058269#1 6058269#2 6058269#3 -131520200#11 6063387#0 6063387#1 -117116043 -6062357 6061784#4 6061784#5 -112433938#8 -112433938#7 6060413#0 6060413#1 -6056691#4 50775191#6 6059959#0 -6059959#0"/>
  <route id="route99" edges="-6063282#1 -130908299#0 130908261#0 130908261#1"/>
  <route id="route100" edges="-131052504#1 131052504#1 125568102#2 -6052339 131520200#6 131520200#7 131520200#8 131520200#9 131520200#10 131520200#11 131520200#12 131520200#13 -6060094 6055141#0 -6053169"/>
  <route id="route101" edges="-6054055#0 -6060452#0 -125568102#13 -125568102#12 112433938#8 112433938#9 6056940#0 -6062241#4 6063089#2 6063089#3 6063089#4 6063089#5 6063089#6 6063089#7 6063089#8 117090350#1 -6063086#4 -6063086#3 6062813 -6062813"/>
  <route id="route102" edges="130927098#0 112319942#3 6062805#0 6062805#1 130908064#2 130908064#3 130908064#4 130908064#5 130908064#6 130908064#7 130908064#8 130908064#9 130908064#10 -6055235#1 6053886#4 6053886#5 -6061421#6"/>
  <route id="route103" edges="6063089#0 -6063089#0 27923411 6057008#1 -111851484#3 6058246#4 -111851487#1 -111851487#0 130908227#5 -112433938#1 -112433938#0 -6061701#1"/>
  <route id="route104" edges="-6063259#1 -125568102#13 -125568102#12 112433938#8 -6061784#5 -6061784#4 -6061784#3 -6061784#2 6061784#2"/>
  <route id="route105" edges="6055141#3 131520204 6060094 117090349#0 117090349#1 117115859#1 117117764#2 117117776 117117774 117117772#0 117117772#1 117117772#2 117117772#3 117117777#0 117117777#1 117117777#2 117117777#3 6053886#9 6053886#10 -6055425#10 5984997 -5984997"/>
  <route id="route106" edges="-6061473#1 6061473#1 6061473#2 6061473#3 6061473#4 6061473#5 6061473#6 117131126#5 117090350#0 117090350#1 117090354 117090348#0 117090348#1 130676665 131463009#3 6055425#0 6055425#1 6055425#2 6055425#3 6055425#4 6055425#5 6055425#6 6055425#7 6055425#8"/>
  <route id="route107" edges="6063356#0 131520200#4 6052453 6058246#0 6055208#3 125568102#5 125568102#6 125568102#7 125568102#8 125568102#9 6057006#1 6063089#0 6063089#1 6063089#2 6063089#3 6063089#4 117090352#0 6056940#4 117117772#1 117117772#2 117117772#3 117117777#0 117117777#1 117117777#2 6060558#4 6060558#5 -6056100#1"/>
  <route id="route108" edges="6063387#13 -130908064#11 -130908064#10 -6062245 -6053886#2 -6053886#1 -6060452#2 -6060452#1 -6056691#5 -6056691#4"/>
  <route id="route109" edges="-6058281#11 -6060558#1 6063387#11 6063387#12 -6053886#4 6055235#1 -130908064#10 -130908064#9 -125568102#19"/>
  <route id="route110" edges="-131052364#2 -131052364#1 -131052364#0 -6061421#7 -6061421#6 -6061421#5 -6061421#4 -6061421#3 -6061421#2 -6061421#1 -6061421#0 -125568102#12 -112433938#7 -112433938#6"/>
  <route id="route111" edges="117131126#0 -117131126#0 -117125676#0 -6060962#2 -6060962#1 -6060962#0 6060391#1 6060391#2 6055141#3 -130676661#3 6058269#0 6058269#1 6058269#2 6058269#3 -131520200#11 -131520200#10 -131520200#9 -131520200#8 -131520200#7 6060445#0 -6055210 6060406#0 -130908261#3 -130908261#2 -130908261#1 -130908261#0 -6062351#1 130908227#2"/>
  <route id="route112" edges="6060391#0 6060391#1 6060391#2 6055141#3 131520204 6060094 117090349#0 -6055750#1 6058281#1 6058281#2 -6063285#1 6063387#3 -6063089#2 6062241#4 -6056940#0 -112433938#9 -112433938#8 112433938#8"/>
  <route id="route113" edges="-6056100#0 -117131820#2 -117131820#1 -117117777#0 -117117772#3 -117131130#0 -6057501#1 -6057501#0 -6063387#6 -6063387#5 -6056940#1 -6062241#4 -6063089#1 -6061784#4 -6061784#3 -130908261#5"/>
  <route id="route114" edges="6062471#0 6062471#1 6062471#2 6062471#3 125568102#0 125568102#1 125568102#2 -6052339 131520200#6 6060445#0 -6055210 6060406#0 6060406#1"/>
  <route id="route115" edges="5988761#0 -5988761#0 -6055425#3 -6055425#2 -6055425#1 -6055425#0 38117920#0 38117920#1 38117920#2 131463009#0 124688165 -117090348#1 -117131821#2 -108189474#1 -108189474#0 -117131126#7 -6063089#7 -6060837#1 -117116046#2 -117117776 -117117764#2 -117115859#1 -117090349#1 -6055750#1 -6058281#0 -131520200#12 -6058269#3 6058269#3"/>
  <route id="route116" edges="-117090352#9 -131052364#0 -130908064#12 -130908064#11 -130908064#10 -6062245 -6053886#2 -6053886#1 -6060452#2"/>
  <route id="route117" edges="-6062479#0 6062479#0 6060833 -6060962#2 -6060962#1 -6060962#0 6060391#1 6060391#2 6055141#3 -130676661#3 6058269#0 6058269#1 6058269#2 6058269#3 -131520200#11 6063387#0 -6055751 6062241#1 -6062357 6061784#4 -6063089#0 27923411 6057008#1 -111851484#3 6058246#4 6058246#5 -50775191#3"/>
  <route id="route118" edges="-130908296#7 111851481 111851484#0 111851484#1 111851484#2 111851484#3 27923406 6057006#1 50775193 -6054821#7 6054821#7"/>
  <route id="route119" edges="70516498#2 -70516498#2 -130908023#0 130908017 -130908011#2 -130908011#1 -130908011#0 -38132699#2 -38132699#1 -38132699#0 112433936#0 112433936#1 -130908227#7 6058217#2 -6063356#7 -6063356#6 111851487#1 -6058246#4 111851484#3 27923406 6057006#1 50775193 -6054821#7 130908261#5 -6061784#2 6062355 117116043 117116047 117115859#0 -117090349#1 -117090349#0 -6060094 6055141#0 6055141#1 -6060391#2 -6060391#1 6060962#0 6060962#1 -6062891 6062891"/>
  <route id="route120" edges="6063387#12 6053886#5 6053886#6 6053886#7 -117090352#7 6060558#3 6060558#4 6060558#5 -6056100#1 -6056100#0 117131820#3 117131822#0 117131822#1 -6055425#0 38117920#0 38117920#1 38117920#2 131463009#0 124688165 -117090348#1 -117090348#0 -6056977#3 -6056977#2"/>
  <route id="route121" edges="112433936#3 -112433936#3 -6063356#8 -6063356#7 -6063356#6 -6063356#5 -6063356#4 6063282#2"/>
  <route id="route122" edges="117131126#13 -6060558#6 -6056100#1 -6056100#0 -117131820#2 -117131820#1 -117117777#0 -117117772#3 -117117772#2 -131520055#0 -117131818 -112433938#13 6063387#6"/>
  <route id="route123" edges="-6063356#9 6063356#9 6063356#10 6059959#0 -6055106#1 50775191#10 50775191#12 -130908064#0 130908017 130908297 130908298#0 -6057920 6054093#2 112343443"/>
  <route id="route124" edges="-117125965#0 -117125672 -6059894#1 -6059894#0 6060391#2 6055141#3 -130676661#3 6058269#0 6058269#1 6058269#2 6058269#3 -131520200#11 -131520200#10 -131520200#9 -131520200#8 -131520200#7 -131520200#6 6052339 -6056969#3 -6056969#2 -130908301#1 -130908301#0 -6062471#2 131052380 -131052380"/>
  <route id="route125" edges="-131520200#9 131520200#9 131520200#10 131520200#11 131520200#12 131520200#13 -6060094 -131520204 -6055141#3 -6060391#2 6059894#0 -6055083#0 6060962#1 6060962#2"/>
  <route id="route126" edges="6055141#1 6055141#3 -130676661#3 6058269#0 6058269#1 6058269#2 6058269#3 -131520200#11 6063387#0 6063387#1 -117116043 -6062357 6061784#4 6061784#5 -112433938#8 -112433938#7 6060413#0 6060413#1 6056691#5 6054055#0 6054055#1 6054055#2 6054055#3 -6054055#3"/>
  <route id="route127" edges="-6063282#3 6058246#3 6058246#4 6058246#5 50775191#4 50775191#5 50775191#6 50775191#7 50775191#8 50775191#10 6062805#1 -130908064#1"/>
  <route id="route128" edges="130908227#11 6055106#0 6055106#1 6055106#2 6061455 6057497 -6054055#1 6060555#0 6060452#2 -6060452#2"/>
  <route id="route129" edges="-6060558#5 -6060558#4 -6060558#3 -6060558#2 -6058281#10 -6056694#5 -6056694#4 -6056694#3 -6061421#2 -6061421#1 -6061421#0 -125568102#12 -112433938#7 -112433938#6 -112433938#5 -112433938#4 -112433938#3 6063356#7 -6058217#2 -6058217#1"/>
  <route id="route130" edges="-125568102#7 125568102#7 125568102#8 125568102#9 125568102#10 125568102#11 125568102#12 6061421#0 -6063259#1 6060452#0 6054055#0 6054055#1 6054055#2 6054055#3 -130908064#5 -130908064#4 130908064#4"/>