<nodes>
   <node id="izquierda" x="0.0" y="0.0"/>
   <node id="derecha" x="10000.0" y="0.0"/>
   <node id="derech2" x="10000.2" y="0.0"/>
</nodes>
