<?xml version="1.0"?>

<!-- generated on Tue Dec 11 15:36:16 2012 by SUMO duarouter Version 0.15.0
<?xml version="1.0" encoding="UTF-8"?>

<configuration xmlns:xsi="http://www.w3.org/2001/XMLSchema-instance" xsi:noNamespaceSchemaLocation="http://sumo.sf.net/xsd/duarouterConfiguration.xsd">

    <input>
        <net-file value="residential_grid.mapa.xml"/>
        <trip-files value="trips.trips.xml"/>
    </input>

    <output>
        <output-file value=".temp"/>
    </output>

    <processing>
        <ignore-errors value="true"/>
    </processing>

</configuration>
-->

<routes xmlns:xsi="http://www.w3.org/2001/XMLSchema-instance" xsi:noNamespaceSchemaLocation="http://sumo.sf.net/xsd/routes_file.xsd">
    <vehicle id="trips.trips.xml0" depart="0.00">
        <route edges="130908227#5 130908227#6 130908227#7 130908227#8 130908227#9 130908227#10 130908227#11 130908227#12 6062805#0 6062805#1 130908064#2 130908064#3 6063369#0 6057928 6058243#1 6058243#2 -6058243#2"/>
    </vehicle>
    <vehicle id="trips.trips.xml1" depart="1.00">
        <route edges="-50775191#4 -6058246#7 -6058246#6 112433938#4 -50775191#2 -50775191#1 -50775191#0 130285132#0 130285132#1 6057006#0 6057006#1 6063089#0 -6061784#4 6062357 117116043 117116047 117115859#0 117115859#1 117117764#2 117117776"/>
    </vehicle>
    <vehicle id="trips.trips.xml2" depart="2.00">
        <route edges="33968337 130676661#1 130676661#2 130676661#3 -6055141#3 -6055141#2 -6055141#1 130676661#5 117090353 117117768#1 117117769 117117764#0 -6055750#2"/>
    </vehicle>
    <vehicle id="trips.trips.xml3" depart="3.00">
        <route edges="6051510 -6051510 6060413#1 -6056691#4 50775191#6 50775191#7 50775191#8 50775191#9 50775191#10 6062805#1 -6062805#1"/>
    </vehicle>
    <vehicle id="trips.trips.xml4" depart="4.00">
        <route edges="-6062805#1 -50775191#10 -50775191#9 -50775191#8 -50775191#7 -50775191#6 -50775191#5 -50775191#4 -6058246#7 -6058246#6 112433938#4 112433938#5 86977818#2"/>
    </vehicle>
    <vehicle id="trips.trips.xml5" depart="5.00">
        <route edges="130908261#4 -130908261#4 -130908261#3 -125568102#5 -125568102#4 -125568102#3 -6056969#3"/>
    </vehicle>
    <vehicle id="trips.trips.xml6" depart="6.00">
        <route edges="6051510 -6051510 6063259#0 6063259#1 6063259#2 -6061784#7 -6061784#6 112433938#9 6056940#0"/>
    </vehicle>
    <vehicle id="trips.trips.xml7" depart="7.00">
        <route edges="117125671 117125683#2 117125683#3 131520199#1 131520199#2 117131126#4 117131126#5 117131126#6 117131126#7 117131126#8 117131126#9 117131126#10 117131126#11 117131126#12 117131126#13 6055425#8 6055425#9 5984997 5988761#4 -5988761#4"/>
    </vehicle>
    <vehicle id="trips.trips.xml8" depart="8.00">
        <route edges="-131520248#0 -6061784#8 -6061784#7 -6061784#6 -6061784#5 -6061784#4 6062357 117116043 117116047 117115859#0 117115859#1 117115862 -6060832 -117115853#2 -117115853#1 -117115853#0 -6061473#6 -6061473#5 -6061473#4 117117762#3"/>
    </vehicle>
    <vehicle id="trips.trips.xml9" depart="9.00">
        <route edges="-6060094 6060094 -131520200#13 -131520200#12 -131520200#11 -131520200#10 -131520200#9 -131520200#8 6054821#5 6054821#6 6054821#7 50775192 6057008#0 6057008#1 6057007 50775191#0 50775191#1 50775191#2 50775191#3 50775191#4 50775191#5 50775191#6 50775191#7 50775191#8 50775191#9 50775191#10 50775191#11 50775191#12 -130908064#0 -112320365 -131052342#1 131052342#1"/>
    </vehicle>
    <vehicle id="trips.trips.xml10" depart="10.00">
        <route edges="6056977#3 117090348#0 -117131821#2 -108189474#1"/>
    </vehicle>
    <vehicle id="trips.trips.xml11" depart="11.00">
        <route edges="-50775191#4 50775191#4 -112433936#4 -112433936#3 -112433936#2 -112433936#1 -112433936#0 112433936#0"/>
    </vehicle>
    <vehicle id="trips.trips.xml12" depart="12.00">
        <route edges="-6060837#1 6060837#1 6063089#7 6063089#8 117090350#1 -6063086#4 -6056977#2 -6056977#1 -6056977#0 6062349#1 -6061599#1"/>
    </vehicle>
    <vehicle id="trips.trips.xml13" depart="13.00">
        <route edges="6062241#6 6062241#7 -6057504 6061784#7 -6063259#2 6063259#2"/>
    </vehicle>
    <vehicle id="trips.trips.xml14" depart="14.00">
        <route edges="6063369#0 -6063369#0 -130908064#3 -130908064#2 -6062805#1 -50775191#10 -50775191#9 -50775191#8 -50775191#7 -50775191#6 -50775191#5 -50775191#4 -6058246#7 -6058246#6 112433938#4 -50775191#2 -50775191#1 -50775191#0 130285132#0 130285132#1 6057006#0 6057006#1 6057006#2 50775193 -6054821#7 -6054821#6 -6054821#5 -6054821#4 -6054821#3 -6054821#2 -6054821#1 -6054821#0 130676672#1 130676662 130676663"/>
    </vehicle>
    <vehicle id="trips.trips.xml15" depart="15.00">
        <route edges="117131126#3 -131520199#2 -131520199#1 -131520199#0 -131520200#15 -131520200#14 -131520200#13 -131520200#12 -131520200#11 -131520200#10 -131520200#9 -131520200#8 6054821#5 6054821#6 6054821#7 50775192 6057008#0 6057008#1 6057007 130285132#0 86977818#0 86977818#1 112433938#6 6060413#0 6060413#1 -6060413#1"/>
    </vehicle>
    <vehicle id="trips.trips.xml16" depart="16.00">
        <route edges="117117772#0 -6056940#4 -6056940#3 6058281#5 -112433938#13 6063387#6 6063387#7 -6063259#5 -6063259#4"/>
    </vehicle>
    <vehicle id="trips.trips.xml17" depart="17.00">
        <route edges="-6063387#13 6053886#5 6053886#6 6053886#7 6053886#8 6053886#9 6053886#10 -6055425#10 -6055425#9 -6055425#8 -117131126#13 -117131126#12 -117131126#11"/>
    </vehicle>
    <vehicle id="trips.trips.xml18" depart="18.00">
        <route edges="6063282#2 6058246#3 6058246#4 6058246#5 6058246#6 6058246#7 50775191#4 50775191#5 50775191#6 50775191#7 50775191#8 50775191#9 50775191#10 50775191#11 50775191#12 -130908064#0 -112320365 -131052342#1 6054093#1 6054093#2"/>
    </vehicle>
    <vehicle id="trips.trips.xml19" depart="19.00">
        <route edges="38607096 -38607096 130676661#2 130676661#3 -6055141#3 -6055141#2 -6055141#1 130676661#5 117090353 117090351#0 131520199#0"/>
    </vehicle>
    <vehicle id="trips.trips.xml20" depart="20.00">
        <route edges="-6062241#1 -6062241#0 -131520200#9 -131520200#8 -131520200#7 -131520200#6 -131520200#5 -125568102#3 -125568102#2 -125568102#1 -125568102#0 -6062471#3"/>
    </vehicle>
    <vehicle id="trips.trips.xml21" depart="21.00">
        <route edges="6058281#8 -6058281#8 -6058281#7 -6058281#6 -6058281#5 -6058281#4 -6058281#3 -6058281#2 -6058281#1 -6058281#0 -131520200#12 -6058269#3 -6058269#2 -6058269#1 -6058269#0 -130676661#2 -130676661#1 38605849#0 38605849#1 33968348#0 33968348#1 33968348#2 34025919 -33968439 33968439"/>
    </vehicle>
    <vehicle id="trips.trips.xml22" depart="22.00">
        <route edges="-50775191#4 50775191#4 50775191#5 50775191#6 50775191#7 -6058553#3 6058604 -112320577#0 112320579 130927011"/>
    </vehicle>
    <vehicle id="trips.trips.xml23" depart="23.00">
        <route edges="-38110183 -38110184#0 -34025923 -33968348#2 -33968348#1 -33968348#0 -38605849#1 -38605849#0 130676661#1 130676661#2 6058269#0 6058269#1 6058269#2 6058269#3 -131520200#11 -131520200#10 6062241#0 6062241#1 -6062357 6061784#4 6061784#5 6061784#6 6061784#7 6061784#8 131520248#0 131520248#1 131520248#2 -6051313 125568102#17 125568102#18 6061786#0"/>
    </vehicle>
    <vehicle id="trips.trips.xml24" depart="24.00">
        <route edges="-6063356#9 112433936#3 112433936#4 -50775191#4 -6058246#7 -6058246#6 112433938#4 -50775191#2 -50775191#1 -50775191#0 130285132#0 130285132#1 6057006#0 6057006#1 6057006#2 50775193 -6054821#7 -6054821#6 -6054821#5 131520200#8 131520200#9 131520200#10 131520200#11 -6058269#3 -6058269#2 -6058269#1 -6058269#0 130676661#3 -6055141#3 -6060391#2 -6060391#1 6060962#0"/>
    </vehicle>
    <vehicle id="trips.trips.xml25" depart="25.00">
        <route edges="6056940#0 -6056940#0 -112433938#9 -112433938#8 -112433938#7 -112433938#6 -112433938#5 50775191#3"/>
    </vehicle>
    <vehicle id="trips.trips.xml26" depart="26.00">
        <route edges="-117115224 117115224 117115228 117115225 117115227#0 117115227#1 6055425#12 6055425#13 6055425#14 6055425#15 131118562 -131118562"/>
    </vehicle>
    <vehicle id="trips.trips.xml27" depart="27.00">
        <route edges="-6058246#3 6058246#3 6058246#4 6058246#5 6058246#6 6058246#7 50775191#4 50775191#5 50775191#6 50775191#7 50775191#8 50775191#9 50775191#10 50775191#11 50775191#12 -130908064#0 -112320365 -131052342#1 6054093#1 6057920"/>
    </vehicle>
    <vehicle id="trips.trips.xml28" depart="28.00">
        <route edges="112433938#9 -112433938#9 6061784#6 6061784#7 6061784#8 131520248#0 131520248#1 131520248#2 -6051313 125568102#17 125568102#18 125568102#19 125568102#20 125568102#21"/>
    </vehicle>
    <vehicle id="trips.trips.xml29" depart="29.00">
        <route edges="37956292#0 38075816 34025420#1 38078436 38078437 130676661#0 130676661#1 130676661#2 130676661#3 -6055141#3 -6055141#2 -6055141#1 130676661#5 117090353 117090351#0 117090351#1 117090351#2 117090351#3 117090350#0 117090350#1 -6063086#4 -6063086#3 -6063086#2 -6063086#1"/>
    </vehicle>
    <vehicle id="trips.trips.xml30" depart="30.00">
        <route edges="-130908023#2 130908023#2 130908023#3 -50775191#14 -50775191#13 -50775191#12 -50775191#11 -50775191#10 -50775191#9 -50775191#8 -50775191#7 -50775191#6 -50775191#5 -50775191#4 -6058246#7 -6058246#6 112433938#4 112433938#5 112433938#6 112433938#7 112433938#8 112433938#9 112433938#10 6062241#6 6058884#0 6055237#1"/>
    </vehicle>
    <vehicle id="trips.trips.xml31" depart="31.00">
        <route edges="-6058601#1 112433936#4 -50775191#4 -6058246#7 -6058246#6 -6058246#5 -6058246#4 -6058246#3 -6063282#2"/>
    </vehicle>
    <vehicle id="trips.trips.xml32" depart="32.00">
        <route edges="117125673#0 -117131126#1 -117125965#0 -117125672 -117125683#0 -6060962#2 6060962#2"/>
    </vehicle>
    <vehicle id="trips.trips.xml33" depart="33.00">
        <route edges="6056940#0 6056940#1 6056940#2 6056940#3 6056940#4 6056940#5 6056940#6 -117131126#8 108189474#0 108189474#1"/>
    </vehicle>
    <vehicle id="trips.trips.xml34" depart="34.00">
        <route edges="-6056977#0 6056977#0 6056977#1 6056977#2 6063086#4 -117090350#1 -6063089#8 -6063089#7 -6063089#6 -6063089#5 -6063089#4 -6063089#3 -6063089#2 -6063089#1 -6063089#0 6057006#2 27923411 6057008#0 6057008#1 6057007 50775191#0 50775191#1 50775191#2 50775191#3 50775191#4 50775191#5 50775191#6 50775191#7 50775191#8 50775191#9 50775191#10 50775191#11 50775191#12 -130908064#0"/>
    </vehicle>
    <vehicle id="trips.trips.xml35" depart="35.00">
        <route edges="6063387#13 130908064#12 130908064#13 131052364#0 131052364#1 131052364#2 -6055425#13 -6055425#12 -6055425#11 -6055425#10 5984997 5988761#4 -5988761#4"/>
    </vehicle>
    <vehicle id="trips.trips.xml36" depart="36.00">
        <route edges="6063285#1 6058281#3 6058281#4 6058281#5 -112433938#13 6063387#6 6063387#7 6063387#8 6063387#9 -6056694#4 6056694#4"/>
    </vehicle>
    <vehicle id="trips.trips.xml37" depart="37.00">
        <route edges="6054093#1 -6054093#1 131052342#1 112320365 130908064#0 -50775191#12 -50775191#11 -50775191#10 -50775191#9 -50775191#8 -50775191#7 -50775191#6 -50775191#5 -50775191#4 -6058246#7 -6058246#6 112433938#4 -50775191#2 -50775191#1 -50775191#0 130285132#0 130285132#1 6057006#0 6057006#1 6057006#2 50775193 -6054821#7 -6054821#6 -6054821#5 131520200#8 131520200#9 131520200#10 131520200#11 131520200#12 131520200#13 131520200#14 131520200#15 131520199#0 131520199#1 131520199#2 131520199#3 -6061473#4 -6061473#3 -117125673#1"/>
    </vehicle>
    <vehicle id="trips.trips.xml38" depart="38.00">
        <route edges="-6054093#1 131052342#1 112320365 130908064#0 -50775191#12 -50775191#11 -50775191#10 -50775191#9 -50775191#8 -50775191#7 -50775191#6 -50775191#5 -50775191#4 -6058246#7 -6058246#6 112433938#4 -50775191#2 -50775191#1 -50775191#0 130285132#0 130285132#1 6057006#0 6057006#1 6057006#2 50775193 -6054821#7 -6054821#6 -6054821#5 131520200#8 131520200#9 131520200#10 131520200#11 131520200#12 131520200#13 131520200#14 -117117768#1 117117768#1"/>
    </vehicle>
    <vehicle id="trips.trips.xml39" depart="39.00">
        <route edges="-112433938#5 112433938#5 112433938#6 112433938#7 125568102#12 125568102#13 -125568102#13"/>
    </vehicle>
    <vehicle id="trips.trips.xml40" depart="40.00">
        <route edges="-111851487#2 111851487#2 -50775191#0 130285132#0 130285132#1 6057006#0 6057006#1 6057006#2 50775193 -6054821#7 -6054821#6 -6054821#5 131520200#8 131520200#9 131520200#10 131520200#11 131520200#12 131520200#13 131520200#14 131520200#15 131520199#0"/>
    </vehicle>
    <vehicle id="trips.trips.xml41" depart="41.00">
        <route edges="6058281#11 6053886#7 6053886#8 6053886#9 6053886#10 -6055425#10 -6055425#9 -6055425#8 -117131126#13 -117131126#12 -117131126#11 -117131126#10 -117131126#9 -117131126#8 -117131126#7 -117131126#6 117090350#0"/>
    </vehicle>
    <vehicle id="trips.trips.xml42" depart="42.00">
        <route edges="-112433936#4 112433936#4 -50775191#4 -6058246#7 -6058246#6 112433938#4 112433938#5 112433938#6 112433938#7 125568102#12 6061421#0 6063259#2 6063259#3 6063259#4 6063259#5 6063259#6 6058281#8 -6058281#8"/>
    </vehicle>
    <vehicle id="trips.trips.xml43" depart="43.00">
        <route edges="-6062479#0 6062479#0 6060833 -6060962#2 -6060962#1 -6060962#0 6060391#1 6060391#2 6055141#3 -130676661#3 6058269#0 6058269#1 6058269#2 6058269#3 -131520200#11 -131520200#10 -131520200#9 -131520200#8 6054821#5 6054821#6 6054821#7 50775192 6057008#0 6057008#1 6057007 130285132#0 86977818#0 86977818#1 112433938#6 6060413#0 6060413#1 6056691#5"/>
    </vehicle>
    <vehicle id="trips.trips.xml44" depart="44.00">
        <route edges="6060558#6 6055425#8 6055425#9 6055425#10 -6053886#10 -6053886#9 -117117777#3"/>
    </vehicle>
    <vehicle id="trips.trips.xml45" depart="45.00">
        <route edges="-6058281#11 -6058281#10 -6058281#9 -6058281#8 -6058281#7 -6058281#6 -6058281#5 -6058281#4 -6058281#3 -6058281#2 -6058281#1 -6058281#0 -131520200#12 -6058269#3 -6058269#2 -6058269#1 -6058269#0 -130676661#2 -130676661#1 38605849#0 38605849#1 33968348#0 33968348#1 33968348#2 34025919 34025912#0 38075224 38094383 -38094383"/>
    </vehicle>
    <vehicle id="trips.trips.xml46" depart="46.00">
        <route edges="50775191#1 -50775191#1 -50775191#0 130285132#0 130285132#1 6057006#0 6057006#1 6057006#2 50775193 -6054821#7 -6054821#6 -6054821#5 -6054821#4 -6054821#3 -6054821#2 -6054821#1 6054821#1"/>
    </vehicle>
    <vehicle id="trips.trips.xml47" depart="47.00">
        <route edges="-6058281#10 -6058281#9 6056774#1 -117090352#4 -117090352#3 -117090352#2 -117090352#1 -117090352#0 -117090349#3 -117090349#2 -117090349#1 -117090349#0 -6060094 6055141#0 -6053169 117125674#0 117125674#1 -117125674#1"/>
    </vehicle>
    <vehicle id="trips.trips.xml48" depart="48.00">
        <route edges="-6054623#0 6054623#0 131520200#1 130908227#0 130908227#1 130908227#2 130908227#3 130908227#4 130908227#5 112433938#2 112433938#3 112433938#4 112433938#5 112433938#6 112433938#7 125568102#12 6061421#0 6061421#1 6061421#2 6061421#3 6061421#4 6061421#5 6063387#12 6063387#13 6063387#14 6063387#15 -6063387#15"/>
    </vehicle>
    <vehicle id="trips.trips.xml49" depart="49.00">
        <route edges="-6061599#0 6061599#0 6061599#1 -6062349#1 6056977#0 6056977#1 6056977#2 6063086#4 -117090350#1 -6063089#8 117131126#7 117131126#8 -6056940#6 -6056940#5 -6056940#4 -6056940#3 -6056940#2 -6056940#1 -6056940#0 -112433938#9 6061784#6 6061784#7 -6063259#2 -6063259#1 6060452#0 6054055#0 6060555#0"/>
    </vehicle>
    <vehicle id="trips.trips.xml50" depart="50.00">
        <route edges="6058217#2 -6063356#7 -6063356#6 -6063356#5 -6063356#4 -6063356#3 -6063356#2 -6063356#1 -6063356#0 6056969#3 -125568102#2 -125568102#1 6060964#0"/>
    </vehicle>
    <vehicle id="trips.trips.xml51" depart="51.00">
        <route edges="-34025433#0 34025433#0 34025433#1 34025433#2 -38605849#1 -38605849#0 130676661#1 130676661#2 6058269#0 6058269#1 6058269#2 6058269#3 -131520200#11 -131520200#10 -131520200#9 -131520200#8 6054821#5 6054821#6 6054821#7 50775192 6057008#0 6057008#1 6057007 50775191#0 50775191#1 50775191#2 -112433938#4 -112433938#3 -112433938#2 -112433938#1 112433938#1"/>
    </vehicle>
    <vehicle id="trips.trips.xml52" depart="52.00">
        <route edges="6063087#0 6063087#1 -130908296#6 -130908296#5 -130908296#4 -130908296#3 -130908296#2 -130908296#1 -130908296#0 -112320579 130908227#11 130908227#12 6062805#0 6062805#1 130908064#2 130908064#3 6063369#0 -6063369#0"/>
    </vehicle>
    <vehicle id="trips.trips.xml53" depart="53.00">
        <route edges="-117090351#1 -131520200#15 -131520200#14 -131520200#13 -131520200#12 -131520200#11 -131520200#10 -131520200#9 -131520200#8 6054821#5 6054821#6 6054821#7 50775192 6057008#0 6057008#1 6057007 50775191#0 50775191#1 50775191#2 50775191#3 50775191#4 -112433936#4 -6058601#0"/>
    </vehicle>
    <vehicle id="trips.trips.xml54" depart="54.00">
        <route edges="6054093#1 -6054093#1 131052342#1 112320365 130908064#0 130908064#1 130908064#2 130908064#3 130908064#4 130908064#5 130908064#6 130908064#7 130908064#8 130908064#9 130908064#10 130908064#11 130908064#12 130908064#13 131052364#0 131052364#1 131052364#2 -6055425#13 -6055425#12 -6055425#11 -6055425#10 -6055425#9 -6055425#8 -6055425#7 6055425#7"/>
    </vehicle>
    <vehicle id="trips.trips.xml55" depart="55.00">
        <route edges="6060558#1 -6058281#10 -6058281#9 6056774#1 -117090352#4 -117090352#3 -117090352#2 -117090352#1 -117090352#0 -117090349#3 -117090349#2 -117090349#1 -117090349#0 -6060094 6055141#0 6055141#1 6055141#2 -6060391#2 -6060391#1 6060962#0 6060962#1 6060962#2 117125676#0 -117131122#1 117131122#1"/>
    </vehicle>
    <vehicle id="trips.trips.xml56" depart="56.00">
        <route edges="130908261#5 6061784#3 6061784#4 6061784#5 6061784#6 6061784#7 -6063259#2 -6063259#1 6060452#0 6054055#0 6054055#1 -6057497"/>
    </vehicle>
    <vehicle id="trips.trips.xml57" depart="57.00">
        <route edges="-50775191#1 -50775191#0 130285132#0 130285132#1 6057006#0 125568102#10 125568102#11 112433938#8 112433938#9 112433938#10 112433938#11 112433938#12 112433938#13 117131818 131520055#0 -117117772#1"/>
    </vehicle>
    <vehicle id="trips.trips.xml58" depart="58.00">
        <route edges="117125681#0 -117125681#0 6061473#3 6061473#4 -131520199#3 -131520199#2 -131520199#1 -131520199#0 -131520200#15 -131520200#14 -131520200#13 -131520200#12 -131520200#11 -131520200#10 -131520200#9 -131520200#8 -131520200#7 -131520200#6 -131520200#5 -125568102#3 -6056969#3 -6056969#2 -6056969#1 6056969#1"/>
    </vehicle>
    <vehicle id="trips.trips.xml59" depart="59.00">
        <route edges="-6058281#5 6058281#5 6058281#6 6058281#7 6058281#8 6058281#9 6058281#10 6058281#11 6058281#12 6061421#8 6061421#9 6061421#10 -131118562"/>
    </vehicle>
    <vehicle id="trips.trips.xml60" depart="60.00">
        <route edges="-6055742#0 6055742#0 6055742#1 130908301#1 6056969#2 6056969#3 125568102#3 131520200#5 131520200#6 131520200#7 131520200#8 131520200#9 131520200#10 131520200#11 131520200#12 131520200#13 131520200#14 131520200#15 131520199#0 131520199#1 131520199#2 -131520199#2"/>
    </vehicle>
    <vehicle id="trips.trips.xml61" depart="61.00">
        <route edges="-70516498#0 -70516498#3 70516495 130908023#2 130908023#3 -50775191#14 -50775191#13 -50775191#12 -50775191#11 -50775191#10 -50775191#9 -50775191#8 -50775191#7 -50775191#6 -50775191#5 -50775191#4 -6058246#7 -6058246#6 -112433938#3"/>
    </vehicle>
    <vehicle id="trips.trips.xml62" depart="62.00">
        <route edges="-130908296#1 6058553#1 6058553#2 6058553#3 -50775191#7 -50775191#6 6056691#4 6056691#5 -6060452#0 125568102#14 6056694#0 6056694#1"/>
    </vehicle>
    <vehicle id="trips.trips.xml63" depart="63.00">
        <route edges="6062241#2 6062241#3 -6063089#1 -6063089#0 6057006#2 27923411 6057008#0 6057008#1 6057007 50775191#0 50775191#1 50775191#2 50775191#3 50775191#4 50775191#5 50775191#6 50775191#7 50775191#8 50775191#9 50775191#10 6062805#1 6062805#2 -6056686"/>
    </vehicle>
    <vehicle id="trips.trips.xml64" depart="64.00">
        <route edges="-37956292#0 34025420#0 34025420#1 38078436 38078437 130676661#0 130676661#1 130676661#2 130676661#3 -6055141#3 -6055141#2 -6055141#1 130676661#5 117090353 117090351#0 131520199#0 131520199#1 131520199#2 131520199#3 131520199#4 131520199#5"/>
    </vehicle>
    <vehicle id="trips.trips.xml65" depart="65.00">
        <route edges="117090352#3 -117090352#3 -117090352#2 -117090352#1 -117090352#0 -117090349#3 -117090349#2 -117090349#1 -117090349#0 -6060094 6055141#0 6055141#1 6055141#2 6055141#3 -130676661#3 -130676661#2 -130676661#1 -130676661#0 -38078437 -38078436 -34025420#1 -38075816 37956292#1"/>
    </vehicle>
    <vehicle id="trips.trips.xml66" depart="66.00">
        <route edges="-111851484#2 111851484#2 111851484#3 27923406 6057006#0 -125568102#9"/>
    </vehicle>
    <vehicle id="trips.trips.xml67" depart="67.00">
        <route edges="130908301#1 130908301#2 130908301#3 130908301#4 130908299#0 130908299#1 -111851484#0 130908227#4 130908227#5 130908227#6 130908227#7 130908227#8 130908227#9 130908227#10 112320577#0"/>
    </vehicle>
    <vehicle id="trips.trips.xml68" depart="68.00">
        <route edges="6055425#9 6055425#10 -6053886#10 -6053886#9 -6053886#8 -6053886#7 -6053886#6 -6061421#6 -6061421#5 -6061421#4 -6062241#10 -6056694#2 -6061421#2 -6061421#1 -6061421#0 -125568102#12 -125568102#11 -125568102#10 -125568102#9 -125568102#8 -125568102#7 -125568102#6 -125568102#5 -125568102#4 -125568102#3 -125568102#2 -125568102#1 -125568102#0 -6062471#3 6062471#3"/>
    </vehicle>
    <vehicle id="trips.trips.xml70" depart="70.00">
        <route edges="-130908227#5 -130908227#4 -130908227#3 -130908227#2 -6062351#0 6062351#0"/>
    </vehicle>
    <vehicle id="trips.trips.xml71" depart="71.00">
        <route edges="-112433938#10 -112433938#9 6061784#6 6061784#7 6061784#8 6061421#2 6061421#3 -6062241#10"/>
    </vehicle>
    <vehicle id="trips.trips.xml72" depart="72.00">
        <route edges="6062479#1 117131122#1 -117125676#0 -6060962#2 -6060962#1 -6060962#0 6060391#1 6060391#2 6055141#3 -130676661#3 6058269#0 6058269#1 6058269#2 6058269#3 -131520200#11 -131520200#10 -131520200#9 -131520200#8 6054821#5 6054821#6 6054821#7 50775192 6057008#0 6057008#1 6057007 50775191#0 50775191#1 50775191#2 -112433938#4 -112433938#3 -112433938#2 130908227#6 -6058217#1 -6058217#0 6058217#0"/>
    </vehicle>
    <vehicle id="trips.trips.xml73" depart="73.00">
        <route edges="6058246#4 111851487#2 -50775191#0 130285132#0 130285132#1 6057006#0 6057006#1 6063089#0 6063089#1 6063089#2 6063089#3 6063089#4 6063089#5 6063089#6 6063089#7 6063089#8 117090350#1 -6063086#4 -6063086#3 6063086#3"/>
    </vehicle>
    <vehicle id="trips.trips.xml74" depart="74.00">
        <route edges="33887032#2 -33887032#0 6054821#3 6061784#0 6061784#1 6062355 6062241#2 6062241#3 6062241#4 6062241#5 6062241#6 6062241#7 6062241#8 6062241#9 6062241#10 -6061421#3"/>
    </vehicle>
    <vehicle id="trips.trips.xml75" depart="75.00">
        <route edges="-111851481 111851481 130908227#4 130908227#5 112433938#2 112433938#3 112433938#4 112433938#5 112433938#6 112433938#7 125568102#12 125568102#13 125568102#14 125568102#15 125568102#16 125568102#17 125568102#18 125568102#19 130908064#9 130908064#10"/>
    </vehicle>
    <vehicle id="trips.trips.xml77" depart="77.00">
        <route edges="6052453 -6052453 131520200#5 131520200#6 131520200#7 -6054821#4 -6054821#3 -6054821#2 38606609#0 38606610#0 38606610#1 -38606610#1"/>
    </vehicle>
    <vehicle id="trips.trips.xml78" depart="78.00">
        <route edges="6060406#1 -6060406#1 130908261#4 -6054821#6 -6054821#5 131520200#8 131520200#9 131520200#10 131520200#11 131520200#12 131520200#13 131520200#14 131520200#15 131520199#0 131520199#1 131520199#2 131520199#3 -6061473#4 -6061473#3 117125681#0 117125681#1"/>
    </vehicle>
    <vehicle id="trips.trips.xml79" depart="79.00">
        <route edges="-6053886#1 -6060452#2 -6060452#1 -6060452#0 6063259#1 6063259#2 -6061784#7 -6061784#6 -6061784#5 -6061784#4 6062357 -6062241#1 -6062241#0 131520200#10 131520200#11 -6058269#3 -6058269#2 -6058269#1 -6058269#0 130676661#3 -6055141#3 -6060391#2 6059894#0 6059894#1 117125672 -117125672"/>
    </vehicle>
    <vehicle id="trips.trips.xml80" depart="80.00">
        <route edges="50775191#8 -50775191#8 -50775191#7 -50775191#6 -50775191#5 -50775191#4 -6058246#7 -6058246#6 112433938#4 -50775191#2 -50775191#1 -50775191#0 130285132#0 130285132#1 6057006#0 6057006#1 6057006#2 50775193 -6054821#7 -6054821#6 -6054821#5 -6054821#4 -6054821#3 -6054821#2 -6054821#1 -6054821#0 130676672#1 130676662 130676661#0 -33968337"/>
    </vehicle>
    <vehicle id="trips.trips.xml81" depart="81.00">
        <route edges="125568102#4 125568102#5 125568102#6 125568102#7 125568102#8 125568102#9 125568102#10 125568102#11 112433938#8 112433938#9 112433938#10 6062241#6 6058884#0 6058884#1 6057501#0 6057501#1 117131130#0 117131130#1 117131130#2 -117131130#2"/>
    </vehicle>
    <vehicle id="trips.trips.xml82" depart="82.00">
        <route edges="-6055425#6 6055425#6 108189476#0 -6056694#11 -6056694#10 -6056694#9 -6056694#8 -6056694#7 -6056694#6 -6056694#5 -6056694#4 -6056694#3 -6056694#2 -6061421#2 -6061421#1 -6063259#1 6060452#0 -6056691#5 -6056691#4 -6056691#3"/>
    </vehicle>
    <vehicle id="trips.trips.xml83" depart="83.00">
        <route edges="38605849#1 -38605849#1 -38605849#0 130676661#1 130676661#2 130676661#3 -6055141#3 -6055141#2 -6055141#1 130676661#5 6056970 117117762#0 117117762#1 117117762#2 117117762#3 -117117762#3"/>
    </vehicle>
    <vehicle id="trips.trips.xml84" depart="84.00">
        <route edges="6056691#5 -6060452#0 6063259#1 6063259#2 -6061784#7 -6061784#6 -6061784#5 -6061784#4 6062357 -6062241#1 -6062241#0 131520200#10 131520200#11 -6058269#3 -6058269#2 -6058269#1 -6058269#0 130676661#3 -6055141#3 -6060391#2 -6060391#1 6060962#0 6060962#1 6060962#2 117125676#0"/>
    </vehicle>
    <vehicle id="trips.trips.xml85" depart="85.00">
        <route edges="6063089#3 -6063089#3 -6063089#2 -6063089#1 -6063089#0 6057006#2 27923411 6057008#0 6057008#1 6057007 50775191#0 50775191#1 50775191#2 50775191#3 50775191#4 -112433936#4 -112433936#3 -112433936#2 -112433936#1 -112433936#0 112433936#0"/>
    </vehicle>
    <vehicle id="trips.trips.xml86" depart="86.00">
        <route edges="-6058884#1 -6055237#0 112433938#12 -6063387#5 -6063387#4 -6063387#3 -6063387#2 -6063387#1 -6063387#0 131520200#11 131520200#12 131520200#13 -6060094 6055141#0 -6053169"/>
    </vehicle>
    <vehicle id="trips.trips.xml87" depart="87.00">
        <route edges="-131520248#0 -6061784#8 -6061784#7 -6061784#6 -6061784#5 -6061784#4 6062357 -6062241#1 -6062241#0 131520200#10 131520200#11 -6058269#3 -6058269#2 -6058269#1 -6058269#0 130676661#3 -6055141#3 -6055141#2 6055740"/>
    </vehicle>
    <vehicle id="trips.trips.xml88" depart="88.00">
        <route edges="6062479#1 117131122#1 117131126#0 117131126#1 117131126#2 -117131126#2"/>
    </vehicle>
    <vehicle id="trips.trips.xml89" depart="89.00">
        <route edges="130908301#4 130908261#0 130908261#1 130908261#2 125568102#6 125568102#7 125568102#8 125568102#9 6057006#1 6063089#0 6063089#1 6063089#2 6063089#3 6063089#4 6063089#5 6063089#6 6063089#7 117131126#7 108189474#0 -108189474#0"/>
    </vehicle>
    <vehicle id="trips.trips.xml90" depart="90.00">
        <route edges="-33968348#1 -33968348#0 -38605849#1 -38605849#0 130676661#1 130676661#2 130676661#3 -6055141#3 -6055141#2 -6055141#1 130676661#5 117090353 117090351#0 117090351#1 117090351#2 117090351#3 117131126#6 117131126#7 108189474#0 -108189474#0"/>
    </vehicle>
    <vehicle id="trips.trips.xml91" depart="91.00">
        <route edges="-117117777#2 -6056694#7 117090352#6 117090352#7 -6053886#7 -6053886#6 -6053886#5 -6053886#4"/>
    </vehicle>
    <vehicle id="trips.trips.xml92" depart="92.00">
        <route edges="130908261#0 130908261#1 130908261#2 125568102#6 125568102#7 125568102#8 125568102#9 125568102#10 125568102#11 125568102#12 6061421#0 6063259#2 6063259#3 6063259#4 6063259#5 6063259#6 6063259#7 117131820#0 117131820#1 117131820#2 117131820#3 -117131820#3"/>
    </vehicle>
    <vehicle id="trips.trips.xml93" depart="93.00">
        <route edges="-131520200#0 131520200#0 131520200#1 131520200#2 131520200#3 131520200#4 131520200#5 131520200#6 131520200#7 131520200#8 131520200#9 131520200#10 131520200#11 -6058269#3 -6058269#2 -6058269#1 -6058269#0 130676661#3 -6055141#3 -6060391#2 -6060391#1 6060962#0 6060962#1 6060962#2 117125676#0 -117131122#1 6062479#2"/>
    </vehicle>
    <vehicle id="trips.trips.xml94" depart="94.00">
        <route edges="6055740 6053169 -6055141#0 6060094 -131520200#13 -131520200#12 -131520200#11 -131520200#10 -131520200#9 -131520200#8 6054821#5 6054821#6 6054821#7 50775192 6057008#0 6057008#1 -111851484#3 -111851484#2 -111851484#1 -111851484#0 -111851481 -6063087#1 -6051768 6061701#0 6061701#1"/>
    </vehicle>
    <vehicle id="trips.trips.xml95" depart="95.00">
        <route edges="131463009#0 131463009#1 131463009#2 131463009#3 6055425#0 6055425#1 6055425#2 6055425#3 6055425#4 6055425#5 6055425#6 6055425#7 6055425#8 6055425#9 6055425#10 6055425#11 6055425#12 6055425#13 -131052364#2 -131052364#1 -131052364#0 -130908064#13 -130908064#12 -130908064#11 -130908064#10 -130908064#9 -130908064#8 -130908064#7 -130908064#6 -130908064#5 -130908064#4 -130908064#3 -130908064#2 -6062805#1"/>
    </vehicle>
    <vehicle id="trips.trips.xml96" depart="96.00">
        <route edges="-130908064#7 -6060452#4 -6060452#3 -6060452#2 -6060452#1 -6060452#0 6063259#1 6063259#2 -6061784#7 -6061784#6 112433938#9 6056940#0 6056940#1 6056940#2 6056940#3 6056940#4 6056940#5 -117115226#0 -6060837#2"/>
    </vehicle>
    <vehicle id="trips.trips.xml97" depart="97.00">