<?xml version="1.0"?>
<!-- generated on Mon Feb 18 16:53:14 2013 by SUMO duarouter Version 0.15.0
<?xml version="1.0" encoding="UTF-8"?>

<configuration xmlns:xsi="http://www.w3.org/2001/XMLSchema-instance" xsi:noNamespaceSchemaLocation="http://sumo.sf.net/xsd/duarouterConfiguration.xsd">

    <input>
        <net-file value="downtown.sumo.xml"/>
        <alternative-files value="trips_048.rou.alt.xml"/>
        <weight-files value="dump_048_900.xml"/>
    </input>

    <output>
        <output-file value="trips_049.rou.xml"/>
        <vtype-output value=""/>
        <exit-times value="false"/>
    </output>

    <processing>
        <ignore-errors value="true"/>
        <max-alternatives value="5"/>
        <with-taz value="false"/>
        <routing-algorithm value="dijkstra"/>
        <gawron.beta value="0.9"/>
        <gawron.a value="0.5"/>
        <keep-all-routes value="false"/>
        <logit value="false"/>
        <logit.beta value="0.15"/>
        <logit.gamma value="1"/>
    </processing>

    <time>
        <begin value="0"/>
    </time>

    <report>
        <verbose value="false"/>
        <no-warnings value="false"/>
        <no-step-log value="true"/>
    </report>

    <random_number>
        <random value="false"/>
    </random_number>

</configuration>
-->
<routes xmlns:xsi="http://www.w3.org/2001/XMLSchema-instance" xsi:noNamespaceSchemaLocation="http://sumo.sf.net/xsd/routes_file.xsd">
  <route id="route1" edges="145014439 -145014439 57742680#2 23227359 111737367#0 145016429#1 23227363 141633906 145019300#0 145019300#1 145019300#2 141633904 134235719#1 4520053 8167122 7980551 24711534 7980544 7980549 120458049 24815726#0 24815726#1 -141634886#2 -141634886#1 143276335#0 136990352 165990910 4520061#0 4520047#0"/>
  <route id="route2" edges="165090424 26743565 -31009602#0 -165090418 112602523#0 112602523#1 112602523#2 112602525#0 165090432#0 165090432#1 165090432#2 -145018317#1 -145018317#0 141633906 145019300#0 145019300#1 145019300#2 145019300#3 -141634886#11 -141634886#10 -141634886#9 -141634886#8 -141634886#7 -141634886#6 -141634886#5 -141634886#4 44935827#0 44935827#1 166039362 166039363#1 166039363#2 44935939 165990907#3 4494778 7980543#0 7980543#1 4494779 4494774#3 -4494773 7980541#0 7980541#1 4857479#1 24972176#0 24972176#1"/>
  <route id="route3" edges="65617783 60005025#1 43144476 4520061#3 4520040 4520046#0 161068026 4520045#1 4520045#2 4520074 4520082#0 4520082#1 -145019303#1 -145019303#0 145019298 165090435#3 145019295#0 145019295#1 145018316#0 145018316#1 164013613 43061432 -43062000 53771531 164013609#0 164013609#1 56314378 43061998 164013612 149765129 115676657#0 115676657#1 -89873771 89873766#0 89873766#1 89873766#2 -58666559 -75902816 -4073491 -56910633#2 146379322 146379319#0 146379319#1"/>
  <route id="route4" edges="4868905#2 4868905#3 166532727#1 166532727#2 166532727#3 15239886#1 37063198#0 37063198#1 37063199#0 37063199#1 47034477#0 47034477#1 47034477#2 160615597#0 160615597#1 160615597#2 160615598#0 160615598#1 160615598#2 146379323#1 146379314 146379315#0 38001123#1 42453505#0 42453505#1 -31009602#1 -31009602#0 -165090418 112602523#0 112602523#1 112602523#2 -53896958 7980051 60005026#0 60005026#1 60005026#2 60005026#3 145019295#0 145019295#1 145018316#0 145018316#1 145018316#2 27755546#0 27755546#1 59568103#1 86575270 4857472#0 4857472#1"/>
  <route id="route5" edges="4494477#0 5110294 164070449#2 27596085#3 12545997#1 12545997#2 12545997#3 112610981 85847365 4018815#0 4018815#2 14348297#1 37634056#2 37634056#3 8132446#3 8432342 4868918#0 4868918#1 4868921#0 4868921#1 24971165#0 4018825#7 4018785#0 4018785#1 33439272#0 33439272#1 116051209#0 43015637 43015611#0 43015611#1 4494774#7 165990907#0 44935988 166039363#2 166039363#3 44935513#1 -141634886#1 143276335#0 136990352 145017162#0 4494794#0 4494794#1 137191639#3 149764465 137191640#0 -43144536#0 4857472#0 37733496 37733497#0 37733497#1"/>
  <route id="route6" edges="-143276335#1 -143276335#0 165990904 4520047#1 4520048#0 4520048#1 4520048#2 4520048#3 4520072#2 4520072#3 4520074 4520082#0 4520082#1 -145019303#1 -145019303#0 145019298 165090435#3 -60005026#3 60005026#3"/>
  <route id="route7" edges="4857499#1 -27625564#1 -27625564#0 -27625572#1 -27625572#0 -24319228#1 -24319228#0 -4868903 23227427#0 23227427#1 163757282 163757290 163757284 -57742680#6 -57742680#5 -57742680#4 -57742680#3 23227359 111737367#0 145016429#1 23227363 145018317#0 4520077#0 4520077#1 86059925#0 86059925#1 4520080#2 4520081#0 4520044 27756045 -27755141 27755143 -145019303#0 145019298 165090435#3 145019295#0 145019295#1 23729251#0 23729251#1 23729251#2 23729238 -43144507 43144507"/>
  <route id="route8" edges="86059925#1 4520080#2 4520081#0 4520044 27756045 -27755141 27755143 -145019303#0 145019298 165090435#3 145019295#0 145019295#1 145018316#0 145018316#1 145018316#2 145018316#3 164013606 -164013605 -164013608#1 -164013608#0 -43062000 53771531 116883176 53896956 56935336 146660067 53896958 112602525#0 112602525#1 112602525#2 165090424 42453343 112602524#1 25096212#0 25096212#1 25096212#2 23227334#0 23227334#1 23227377 23227390 145014444#1 23227429#0 23227421"/>
  <route id="route9" edges="23227456 -23227456 -10753878#0 5110269 23227427#0 23227427#1 163757282 163757290 163757284 -57742680#6 -57742680#5 -57742680#4 -57742680#3 23227359 111737367#0 145016429#1 145016429#2 112602527#2 112602527#3 146380971 112602522#1 112602522#2 -42453343 26743565 -31009602#0 31009601 112602523#0 112602523#1 112602523#2 -53896958 -146660067 -56935336 -53896956 -10516170 10516169 56314378 43061997"/>
  <route id="route10" edges="43375972#1 43375972#2 43375972#3 43375972#4 4520105 45671217 45671218#0 45671218#1 134398143 4520104#0 138141248 147175264 147175265#0 147175265#2 4683845#0 4683845#1 4683845#3 146536192#0 146536192#1 146536189#0 146536189#1 4494771#1 24972176#2 7980541#0 7980541#1 137134711#3 -143274294#1 87605251 32263849#2 23982227 46273835#0 46273835#1 -139591713 139591713"/>
  <route id="route11" edges="-53896958 53896958 112602525#0 112602525#1 -64343117 163757294#1 37338857#2"/>
  <route id="route12" edges="37063199#0 37063199#1 47034477#0 47034477#1 47034477#2 160615597#0 160615597#1 160615597#2 160615598#0 160615598#1 160615598#2 146379323#1 146379314 146379315#0 38001123#1 42453505#0 42453505#1 -31009602#1 -31009602#0 -165090418 112602523#0 112602523#1 112602523#2 -53896958 7980051 60005026#0 60005026#1 60005026#2 60005026#3 145019295#0 145019295#1 23729251#0 23729251#1 23729251#2 60005025#0 60005025#1 165990908 23729246"/>
  <route id="route13" edges="137134711#0 4857479#3 4018851#0 4018851#1 4018851#2 4018851#3 4018788#0 4018788#1 4018788#2 4018788#3 4018788#4 4018788#5 111767996 4494477#0 4494477#1 4494477#2 4494477#3 4494477#4 144795651 4494327#1 4494327#2"/>
  <route id="route14" edges="23227375#1 53869268 111459945 23227361 111866281 57742680#6 57742680#7 145014444#0 145014444#1 145014444#2 145014444#3 23227412 5110266#0 5110266#1 37335402#0 37335402#1 37335402#2 23227528#0 118373950"/>
  <route id="route15" edges="145016429#1 23227363 145018317#0 4520077#0 4520077#1 86059925#0 86059925#1 4520080#2 4520080#0 7980550 24711534 7980544 7980549 120458049 24815726#0 24815726#1 141634886#3 44935827#0 44935827#1 166039362 166039363#1 166039363#2 44935939 165990907#3 4494778 7980543#0 7980543#1 4494779 4494774#3 4494774#4 23084178#0 23084178#2 166039358 43015940#0 27745095 43016041#0 146536204#3 134407088#0 134407088#1 4018825#1 134407087#7"/>
  <route id="route16" edges="-87605254 4857477#1 4857479#0 4857479#1 4857479#2 4857479#3 4018851#0 4018851#1 4018851#2 4018851#3 4018788#0 4018788#1 4018788#2 4018788#3 4018788#4 4018788#5 111767996 4494477#0 4494477#1 4494477#2 4494477#3 4494477#4 144795651 59242849 4857499#0 4857499#1 56349416#0 4868908#0 4868908#1 4868908#2 27595967#0 24293092#0 24293092#1 27595967#2 138760679 10753783#1 10753783#2 10753785 146079306"/>
  <route id="route17" edges="96017784 147680936 -27625579 -27625572#1 -27625572#0 -24319228#1 37335403#0 37335403#1 5110266#1 37335402#0 37335402#1 37335402#2 37335402#3 -145014444#4 -145014444#3 23227394 23227395 25096211#1 25096211#2 26613344#0 26613344#1 52783712 47034477#1 47034477#2 160615597#0 160615597#1 160615597#2 160615598#0 160615598#1 160615598#2 146379323#1 146379314 146379315#0 38001123#1 42453414#0 42453414#1 42453519 112602522#2 -42453343 26743565 -31009602#0 -165090418 112602523#0 112602523#1 112602523#2 -53896958 -146660067 -56935336 -53896956 -10516170 10516169 56314378 43061998 56314379"/>
  <route id="route18" edges="145019298 165090435#3 145019295#0 145019295#1 145018316#0 26702701#0 145018315 23729251#2 60005025#0 60005025#1 43144476 4520061#3 4520040 4520046#0 4520046#1 4520046#2 4520071 4520069 4520048#1 4520048#2 4520049 24815726#1 141634886#3 44935827#0 44935827#1 166039362 166039363#1 166039363#2 44935939 165990907#3 4494778 7980543#0 7980543#1 4494779 4494774#3 4494774#4 23084178#0 49357165 -43165905#1 24606659#1 24606659#2 138141252#1 -43160119#0 147175268#1 4018845#0 8132446#0 134408764#2 134408764#3 59429225 134550446"/>
  <route id="route19" edges="46273835#3 23978410#0 23978410#1 136990483#0 136990483#2 -145017162#0 165990910 4520061#0 4520061#1 4520061#2 4520061#3 4520063#0 4520063#1"/>
  <route id="route20" edges="4018788#2 137134716#3 137134716#4 137134716#5 137134710#0 137134710#1 137134710#2 164247789#2 4494771#1 24972176#2 4494773 4494774#4 23084178#0 23084178#2 166039358 43015733 23084109 -141634886#8 7980547#0 7980547#1 -120458053 7980544 4520054 4520082#0 4520082#1 -145019303#1 -145019303#0 145019298 165090435#3 145019295#0 145019295#1 145018316#0 145018316#1 164013613 43061432 -43062000 53771531 164013609#0 164013609#1 56314378 43061998 164013612 149765129 115676657#0 115676655 37732652 58666563"/>
  <route id="route21" edges="145593785#2 28893947#1 28893947#3 147972344 134550448 134409187 147175293#0 147175293#1 37634056#2 37634056#3 8132446#3 8432342 4868918#0 4868918#1 4868921#0 4868921#1 24971165#0 4018825#7 4018785#0 4018785#1 4018816#0 146536189#1 4494771#1 24972176#2 7980541#0 7980541#1 137134711#3 137191639#0 137191639#2 137191639#3 149764465 137191640#0 137191640#1 137191640#2 25686851"/>
  <route id="route22" edges="5110311#1 -5110311#1 -5110311#0 -56349416#1 -56349416#0 -27625564#1 -27625564#0 27625579 4082401 96017796#0 96017796#1 148365467 145593783 148358570#0 148358570#1 145593784#0 145593784#1 147175290#1 147175293#0 147175293#1 37634056#2 37634056#3 8132446#3 8432342 4868918#0 4868918#1 4868921#0 4868921#1 24971165#0 4018825#7 4018785#0 4018785#1 4018816#0"/>
  <route id="route23" edges="164473826#3 164473826#4 164473826#5 32013351 164013607 58666556 164013611#0 164013611#1 164013611#2 58666557 53771529#0 53771529#1 9823618#0 9823618#1 9823618#2 149764466 4494801#0 4494801#1 4494801#2 4494801#3 23978428#4 23978428#5"/>
  <route id="route24" edges="165990907#2 165990907#3 4494778 4494785 -143276337#0 -143276335#1 -143276335#0 165990904 4520047#1 4520048#0 4520048#1 4520048#2 4520048#3 4520072#2 4520072#3 4520074 4520082#0 4520082#1 -145019303#1 -145019303#0 145019298 165090435#3 -60005026#3 -60005026#2 -60005026#1 100183081 100183073 37732892#0"/>
  <route id="route25" edges="56314378 43061998 10517356 7980574#1"/>
  <route id="route26" edges="141634886#3 141634886#4 141634886#5 141634886#6 141634886#7 7980547#0 7980547#1 -120458053 7980544 4520054 4520082#0 4520082#1 -145019303#1 -145019303#0 145019298 165090435#3 145019295#0 145019295#1 145018316#0 145018316#1 145018316#2 145018316#3 164013606 -164013607 -32013351 164473826#6 4519603#0 4519603#1"/>
  <route id="route27" edges="162729510 134579767 134580468#0 137135364#1 137135361#0 137135361#1 -27625564#1 -27625564#0 27625579 4082401 96017796#0 96017796#1 148365467 145593783 148358570#0 148358570#1 23227646 85847365 145593787 85847370#0 85847370#1 28893947#3 147972354"/>
  <route id="route28" edges="-60005026#3 60005026#3 145019295#0 145019295#1 145018316#0 145018316#1 164013613 43061432 -43062000 53771531 164013609#0 164013609#1 56314378 43061998 164013612 149765129 115676657#0 115676657#1 -89873771 89873766#0 89873766#1 89873766#2 -58666559 -75902816 -4073491 -56910633#2 146379322 146379319#0"/>
  <route id="route29" edges="146398619#1 -146398619#1 -146398619#0 -164013604 -25686851 -164013606 -145018316#3 -145018316#2 -145018316#1 26702701#0 145018315 23729251#2 60005025#0 60005025#1 43144476 4520061#3 4520040 4520046#0 4520046#1 4520046#2 4520071 4520069 4520048#1 4520048#2 4520049 24815726#1 141634886#3 44935827#0 44935827#1 166039362 166039363#1 166039363#2 44935939 165990907#3 4494778 7980543#0 7980543#1 4494779 4494774#3 4494774#4 23084178#0 23084178#2 166039358 43015940#0 43015940#1 43015940#2 23084122"/>
  <route id="route30" edges="134407834#0 4520104#2 134407836#0 138141249#2 -4520100 43375972#1 8311371 147175277#0 147175277#1 134408764#2 134408764#3 59429225 134550446 147175289 112610983 147972353 112610981 4868910 96017784 -4494327#4 -4494327#2 -4494327#1 59242849 4857499#0 4857499#1 166532727#0 166532727#1 166532727#2 166532727#3 15239886#1 37063198#0 37063198#1"/>
  <route id="route31" edges="166623699 166623697 141634886#10 134235719#0 134235719#1 4520088 -134397031 86059925#1 4520080#2 4520081#0 4520044 27756045 -27755141 27755143 -145019303#0 145019298 165090435#3 145019295#0 145019295#1 145018316#0 145018316#1 164013613 43061432 -43062000 53771531 116883176 53896956 56935336 146660067 53896958 112602525#0 112602525#1 112602525#2 165090424 42453343 112602524#1 25096212#0 25096212#1 25096212#2 23227334#0 23227334#1 23227377 23227390 145014444#1 145014444#2 145014444#3 23227412 5110266#0 5110266#1 4868905#0 4868905#1 4868905#2 4868905#3 166532727#1 27595966#0 27595966#1 4868908#2 27595967#0 24293092#0 24293092#1 27595967#2 138760679 10753783#1"/>
  <route id="route32" edges="-145018316#3 145018316#3 164013606 58666556 164013611#0 164013611#1 164013611#2 4604990#1"/>
  <route id="route33" edges="-53771528#0 -43144536#0 4857472#0 4857472#1 4857472#2 164070445 164070441 164070451 4520061#0 4520047#0 4520047#1 4520068 143276335#0 143276335#1 143276337#0 143276337#2 4857477#0"/>
  <route id="route34" edges="44935988 166039363#2 166039363#3 44935513#1 -141634886#1"/>
  <route id="route35" edges="137134710#0 137134710#1 137134710#2 137134710#3 137134711#0 137134711#1 137134711#2 137134711#3 137191639#0 51855670#2 23978409 51855667#0 51855667#1 39267983 39267984 51855667#4 51855667#5 7980566"/>
  <route id="route36" edges="23227539#1 37335402#2 23227528#0 23227528#1 23227515#0 23227515#1 23227515#2 23227515#3 -27625564#0 27625579 4082401 96017796#0 96017796#1 148365467 145593783 148358570#0 148358570#1 145593784#0 145593784#1 4018815#2 4018835#0 134552888#1+134552891#1 8423864 8423866 8311367 8311387 43375972#3 43375972#4 4520105 45671217 45671218#0 45671218#1 134398143 134407835#0 134407835#1"/>
  <route id="route37" edges="137191640#1 137191640#2 -164013606 -145018316#3 -145018316#2 164013613 43061432 -43062000 53771531 164013609#0 164013609#1 56314378 43061998 164013612 149765129 115676657#0 115676657#1 -89873771 89873766#0 89873766#1 165090431#0 165090439 165090427#1"/>
  <route id="route38" edges="31898400#0 12543634 -145014444#5 -145014444#4 23227412 5110266#0 5110266#1 4868904#0 4868904#1 27625572#0 27625572#1 27625579 4082401 96017796#0 96017796#1 148365467 145593783 148358570#0 148358570#1 23227646 85847365 145593787 85847370#0 24606640#0 24606640#1 24606641 137134716#1 137134716#2 137134716#3 137134716#4"/>
  <route id="route39" edges="152402398 164111020#0 164111020#1 164111020#2 4073513#0 4073513#1 4073513#2 75902816 58666559 89873772#0 -165090425 165090431#0 165090426#1 112602523#2 -53896958 -146660067 -56935336 -53896956 -10516170 10516169 56314378 43061997 43061999#0 43062000 -43062000"/>
  <route id="route40" edges="-163757292 163757292 37338857#2 145016429#4 112602527#3 146380971 25096212#0 25096212#1 25096212#2 23227334#0 23227334#1 23227377 23227390 145014444#1 145014444#2 145014444#3 23227412 5110266#0 5110266#1 4868904#0 4868904#1 27625572#0 27625572#1 27625579 4082401 96017796#0 96017796#1 148365467 145593783 148358570#0 148358570#1 145593784#0 145593784#1 147175290#1 147175293#0 147175293#1 37634056#2 37634056#3 8132446#3 8432342 4868918#0 4868918#1 4868921#0 4868921#1 4868922#0 4868923 111768000#1 -111768000#1"/>
  <route id="route41" edges="-4868922#1 4868922#1 4868925#0 4868925#1 4868925#2 8132446#0 134408764#2 134408764#3 59429225 134550446 147175289 147972363 112610981 4868910 96017784 147680936 -27625579 -27625572#1 -27625572#0 -24319228#1 37335403#0 37335403#1 5110266#1 37335402#0 37335402#1 37335402#2 37335402#3 -145014444#4 -145014444#3 23227394 23227395 25096211#1 25096211#2 26613344#0 26613344#1 52783712 47034477#1 47034477#2 160615597#0 160615597#1 160615597#2 160615598#0 160615598#1 160615598#2 15243387 55283910 142651260 142651267#0+142653784#0 142651267#2+142653784#2 31068405#0 -4877681 -4073513#0"/>
  <route id="route42" edges="109301000#1 109301000#2 160615594 160615597#2 160615598#0 160615598#1 160615598#2 146379323#1 146379314 146379315#0 38001123#1 42453505#0 42453505#1 -31009602#1 -31009602#0 -165090418 112602523#0 112602523#1 112602523#2 112602525#0 165090432#0 165090432#1 165090432#2 -145018317#1 4520077#0 4520077#1 86059925#0 86059925#1 4520080#2 4520080#0 7980550 24711534 7980544 7980549 120458049 24815726#0 24815726#1 141634886#3 44935827#0 44935827#1"/>
  <route id="route43" edges="-57742680#7 -57742680#6 -57742680#5 -57742680#4 -57742680#3 23227359 111737367#0 145016429#1 23227363 141633906 145019300#0 145019300#1 145019300#2 141633904 134235719#1 4520053 8167122 7980551 24711534 7980544 7980549 120458049 24815726#0 24815726#1 141634886#3 44935827#0 44935827#1 166039362 166039363#1 166039363#2 44935939 165990907#3 4494778 7980543#0 7980543#1 4494779 4494774#3 4494774#4 23084178#0 49357165 -43165905#1 4683845#3 146536192#0"/>
  <route id="route44" edges="7980620 33439265#2 4018851#2 4018851#3 4018788#0 4018788#1 4018788#2 4018788#3 4018788#4 4018788#5 111767996 4494477#0 4494477#1 4494477#2 4494477#3 4494477#4 144795651 59242849 4857499#0 4857499#1 -27625564#1 27625564#1"/>
  <route id="route45" edges="23227359 111737367#0 145016429#1 23227363 145018317#0 145018317#1 165090435#0 165090435#2 165090435#3 145019295#0 145019295#1 145018316#0 145018316#1 145018316#2 145018316#3 164013606 -164013607 -32013351 164473826#6 164473826#7 164473826#0 164473826#1 164473826#2 -4012020#1"/>
  <route id="route46" edges="23227515#1 23227515#2 23227515#3 -27625564#0 -27625572#1 -27625572#0 -24319228#1 37335403#0 37335403#1 5110266#1 37335402#0 37335402#1 37335402#2 37335402#3 -145014444#4 -145014444#3 -145014444#2 -145014444#1 -145014444#0 -57742680#7 -57742680#6 -57742680#5 -57742680#4 -57742680#3 23227359 111737367#0 145016429#1 23227363 145018317#0 4520077#0 4520077#1 86059925#0 86059925#1 4520080#2 4520080#0 7980550"/>
  <route id="route47" edges="134407835#1 138141247#2 112610993#2 27745290#1 57986382 4683845#0 4683845#1 43165905#1 43015940#2 43015726 43015611#0 43015611#1 4494774#7 165990907#0 44935988 166039363#2 166039363#3 44935513#1 -141634886#1 143276335#0 136990352 145017162#0 4494794#0 4494794#1 137191639#3 149764465 137191640#0 137191640#1 137191640#2 -164013606"/>
  <route id="route48" edges="-27756067#1 -27756067#0 4520045#2 4520074 4520075 4520080#1 4520080#2 4520081#0 4520044 27756045 -27755141 27755143 -145019303#0 145019298 165090435#3 145019295#0 145019295#1 145018316#0 145018316#1 164013613 43061432 -43062000 53771531 116883176 53896956 56935336 146660067 53896958 112602525#0 112602525#1 112602525#2 165090424 42453343 112602524#1 25096212#0 25096212#1 25096212#2 23227334#0 23227334#1 23227377 23227390 145014444#1 23227429#0 23227421 163757282 163757290 163757284"/>
  <route id="route49" edges="37633925 112610979 8132444 148126139 112610981 4868910 96017784 147680936 -27625579 -27625572#1 -27625572#0 -24319228#1 37335403#0 37335403#1 5110266#1 37335402#0 37335402#1 37335402#2 37335402#3 -145014444#4 -145014444#3 23227394 23227395 25096211#1 25096211#2 26613344#0 26613344#1 52783712 47034477#1 47034477#2 160615597#0 160615597#1 160615597#2 160615598#0 160615598#1 160615598#2 146379323#1 146379314 146379315#0 146379315#1 23227281#1"/>
  <route id="route50" edges="145016429#3 145016429#4 112602527#3 146380971 25096212#0 25096212#1 25096212#2 23227334#0 23227334#1 23227377 23227390 145014444#1 145014444#2 145014444#3 23227412 5110266#0 5110266#1 4868905#0 4868905#1 4868905#2 4868905#3 166532727#1 166532727#2 166532727#3 15239886#1 -146537834 146537834"/>
  <route id="route51" edges="53896956 56935336 146660067 53896958 112602525#0 165090432#0 165090432#1 165090432#2 -145018317#1 4520077#0 4520077#1 86059925#0 86059925#1 4520080#2 4520080#0 7980550 24711534 7980544 7980549 120458049 24815726#0 24815726#1 141634886#3 44935827#0 44935827#1 166039362 166039363#1 166039363#2 44935939 165990907#3 4494778 7980543#0 7980543#1 4494779 4494774#3 4494774#4 23084178#0 49357165 -43165905#1 146536204#2 -43016041#0"/>
  <route id="route52" edges="-141634886#3 141634886#3 44935827#0 44935827#1 166039362 166039363#1 166039363#2 44935939 165990907#3 4494778 7980543#0 7980543#1 4494779 4494774#3 4494774#4 23084178#0 23084178#2 166039358 43015940#0 27745095 43016041#0 146536204#3 134407088#0 138141254#0 4018825#2 -43160119#0 147175268#1 4868924#0 4868926 4868925#1 4868925#2 8132446#0 8132446#1 8132446#2 8132446#3 8132446#4 8132442#0 8132442#1 37633925 112610979 147972363 112610981 4868910 96017784 147680936 -27625579 -27625572#1 -27625572#0 -24319228#1 37335403#0 37335403#1 5110266#1 4868905#0 4868905#1 23227515#3"/>
  <route id="route53" edges="145018316#3 -145018316#3 27755546#0 27755546#1 59568103#1 86575270 4857472#0 4857472#1 164070448#0 164070448#1 164070448#2 37338981 4494794#1 51855670#0 51855670#2 23978409 51855667#0 51855667#1 39267983 31305447#0 23978391#3 136990480#2"/>
  <route id="route54" edges="134548710 145593785#0 111767996 12545997#1 12545997#2 12545997#3 112610981 85847365 4018815#0 147175290#1 147175293#0 147175293#1 37634056#2 37634056#3 8132446#3 8432342 4868918#0 4868918#1 4868921#0 4868921#1 24971165#0 4018825#7 4018785#0 4018785#1 4018816#0 146536189#1 4494771#1 24972176#2 7980541#0 7980541#1 137134711#3 137191639#0 51855670#2 23978409 51855667#0 51855667#1 39267983 39267984"/>
  <route id="route55" edges="-145014444#0 145014444#0 145014444#1 145014444#2 145014444#3 23227412 5110266#0 5110266#1 4868904#0 4868904#1 27625572#0 27625572#1 27625579 4082401 96017796#0 96017796#1 148365467 145593783 148358570#0 148358570#1 145593784#0 145593784#1 4018815#2 4018835#0 4018835#2"/>
  <route id="route56" edges="7980570 25064447#1 25064447#2 21628608 10569217#0 10569217#1 149764466 137191639#3 149764465 137191640#0 137191640#1 137191640#2 -164013605 -164013608#1 -164013608#0 -43062000 53771531 116883176 53896956 56935336 146660067 53896958 112602525#0 112602525#1 -64343117 163757294#1 37338857#2 145016429#4 -145016429#4"/>
  <route id="route57" edges="-53771528#1 -53771528#0 -43144536#0 4857472#0 4857472#1 4857472#2 164070445 164070441 164070451 4520061#0 4520061#1 4520061#2 4520061#3 4520040 4520046#0 4520046#1 -27756067#1 27756068 -27756068"/>
  <route id="route58" edges="-147680936 147680936 -27625579 -27625572#1 -27625572#0 -24319228#1 37335403#0 37335403#1 5110266#1"/>
  <route id="route59" edges="37335402#0 37335402#1 37335402#2 37335402#3 -145014444#4 -145014444#3 23227394 23227395 25096211#1 25096211#2 26613344#0 26613344#1 52783712 47034477#1 47034477#2 160615597#0 160615597#1 160615597#2 160615598#0 160615598#1 160615598#2 15243387 55283910 142651260 142651267#0+142653784#0 142651267#2+142653784#2 4073491 75902816 164111025 37732653"/>
  <route id="route60" edges="164473826#5 164473826#6 4519603#0 4519603#1 4519603#2 56302955 43062001 53771531 164013609#0 164013609#1 56314378 43061998 164013612 149765129 115676657#0 115676657#1 -89873771 89873766#0 89873766#1 165090431#0 165090426#1 112602523#2 112602525#0 112602525#1 112602525#2 165090424 42453343 112602524#1 25096212#0 25096212#1 25096212#2 23227334#0 23227334#1 23227377 23227390 145014444#1 145014444#2 145014444#3 23227412 5110266#0 5110266#1 4868905#0 4868905#1 4868905#2 137135361#1 137135363 33080415#2 33080415#3 96017805"/>
  <route id="route61" edges="31305447#1 7980558#1 7980558#2 7980564 7980566 46273835#0 46273835#1 46273835#3 23978410#0 23978410#1 136990483#0 137191639#2 137191639#3 149764465 137191640#0 137191640#1 137191640#2 -164013605 -164013608#1 -164013608#0 -43062000 53771531 164013609#0 164013609#1 56314378 43061998 164013612 149765129 115676657#0 115676657#1 -89873771 89873766#0 89873766#1 89873766#2 -58666559 -75902816 -4073491 -56910633#2 146379322 146379319#0 146379319#1 146379316 146379314 146379315#0 38001123#1 42453505#0"/>
  <route id="route62" edges="165990904 4520047#1 4520048#0 4520048#1 4520048#2 4520048#3 4520072#2 4520072#3 4520074 4520082#0 4520082#1 -145019303#1 -145019303#0 145019298 165090435#3 145019295#0 145019295#1 145018316#0 145018316#1 145018316#2 145018316#3 164013606 -164013605 -164013608#1 -164013608#0 -43062000 53771531 116883176 53896956 56935336 146660067 53896958 112602525#0 112602525#1 -64343117 163757294#1 37338857#2 -145016429#3 25096206#1 23227375#0 23227375#1 53869268 111459945 23227361 111866281 -57742680#5 163757297 28660861 -28660861"/>
  <route id="route63" edges="112602528 -112602528 149768937 137135364#0 137135364#1 137135361#0 137135361#1 -27625564#1 -27625564#0 27625579 4082401 96017796#0 96017796#1 148365467 145593783 148358570#0 148358570#1 145593784#0 145593784#1 147175290#1 147175293#0 147175293#1 14348297#3 14348297#4"/>
  <route id="route64" edges="164070455 164070453 -10753548 164070441 164070451 4520061#0 4520047#0 4520047#1 4520068 143276335#0 143276335#1 165990906 4494778 7980543#0 7980543#1 4494779 4494774#3 4494774#4 23084178#0 23084178#2 166039358 43015940#0 27745095 43016041#0 146536204#3 134407088#0 134407088#1 134407088#2 134407089#0 134407836#0 138141249#2 -4520100 43375972#1 8311371 147175277#0 147175277#1 134408764#2 134408764#3 59429225 134550446 147175289"/>
  <route id="route65" edges="55283910 142651260 146379319#1 146379316 146379314 146379315#0 38001123#1 42453414#0 42453414#1 42453519 112602522#2 163757294#0 163757294#1 37338857#2 -145016429#3 -145016429#2 23227363 141633906 145019300#0"/>
  <route id="route66" edges="43015726 43015611#0 43015611#1 23084178#0 23084178#2 166039358 43015733 23084109 -141634886#8 7980547#0 7980547#1 -120458053 7980544 4520054 4520075 4520080#1 4520080#2 4520081#0 4520044 27756045 -27755141 27755143 -145019303#0 145019298 165090435#3 145019295#0 145019295#1 145018316#0 145018316#1 164013613 43061432 -43062000 53771531 164013609#0 164013609#1 56314378 43061998 10517356 -116883181 -4519672 4073450 53758421 164111028 164111022#0"/>
  <route id="route67" edges="164070454 164070453 37338980 164070448#1 164070448#2 37338981 4494794#1 51855670#0 51855670#2 23978409 23978410#1 136990483#0 137191639#2"/>
  <route id="route68" edges="-4868922#1 -4868922#0 24971165#0 4018825#7 4018785#0 4018785#1 7980620 33439265#2 137134710#2 137134710#3 137134711#0 137134711#1 137134711#2 40012050#0 23889203#1"/>
  <route id="route69" edges="137135361#1 -27625564#1 -27625564#0 -27625572#1 -27625572#0 -24319228#1 37335403#0 37335403#1 5110266#1 37335402#0 37335402#1 37335402#2 37335402#3 -145014444#4 -145014444#3 23227394 23227395 25096211#1 25096211#2 26613344#0 26613344#1 52783712 47034477#1 47034477#2 160615597#0 160615597#1 160615597#2 160615598#0 160615598#1 160615598#2 146379323#1 146379314 146379315#0 38001123#1 42453414#0 42453414#1 42453519 112602522#2 -42453343 26743565 -31009602#0 -165090418 112602523#0 112602523#1 112602523#2 112602525#0 112602525#1 -64343117"/>
  <route id="route70" edges="-4012020#1 -4012020#0 164473826#2 4519601 4519602 164473826#4 164473826#5 32013351 164013607 -164013606 -145018316#3 -145018316#2 -145018316#1 26702701#0 145018315 23729251#2 60005025#0 60005025#1 43144476 4520061#3 4520040 4520046#0 4520046#1 4520046#2 4520071 4520069 4520048#1 4520048#2 4520049 24815726#1 141634886#3 44935827#0 44935827#1 166039362 166039363#1 166039363#2 44935939 165990907#3 4494778 7980543#0 7980543#1 4494779 4494774#3 4494774#4 23084178#0 23084178#2 166039358 43015940#0 27745095 43016041#0 146536204#3 134407088#0 138141254#0 138141254#2"/>
  <route id="route71" edges="23227515#1 23227515#2 4868905#2 4868905#3 166532727#1 166532727#2 166532727#3 15239886#1 37063198#0 37063198#1 37063199#0 37063199#1 47034477#0 47034477#1 47034477#2 160615597#0 160615597#1 160615597#2 160615598#0 160615598#1 160615598#2 146379323#1 146379314 146379315#0 38001123#1 42453414#0 42453414#1 42453519 112602522#2 163757294#0 64343117 112602525#2 10516167#0 112602523#0 112602523#1 112602523#2 -53896958 -146660067 -56935336 -53896956 -10516170 10516169 56314378 43061998 10517356"/>
  <route id="route72" edges="145469501#0 145469493 -10753783#2 138760678 -27595967#2 -27595967#1 -27595967#0 166532726#0 166532726#1 166532727#3 15239886#1 37063198#0 37063198#1 37063199#0 37063199#1 47034477#0 47034477#1 47034477#2 160615597#0 160615597#1 160615597#2 160615598#0 160615598#1 160615598#2 146379323#1 146379314 146379315#0 38001123#1 42453414#0 42453414#1 42453519 112602522#2 -42453343 26743565 -31009602#0 -165090418 112602523#0 112602523#1 112602523#2 -53896958 7980051 60005026#0 60005026#1 60005026#2 60005026#3 145019295#0 145019295#1 145018316#0 145018316#1 145018316#2 145018316#3 164013606 58666556 164013611#0 164013611#1 164013611#2 58666557 53771529#0 53771529#1 9823618#0 9823618#1 10569218#0 10569218#1 10569218#2"/>